/*---------------------------------------------------------------------------*\
| =========                 |                                                 |
| \\      /  F ield         | OpenFOAM: The Open Source CFD Toolbox           |
|  \\    /   O peration     | Version:  2306                                  |
|   \\  /    A nd           | Website:  www.openfoam.com                      |
|    \\/     M anipulation  |                                                 |
\*---------------------------------------------------------------------------*/
Build  : _fbf00d6bf2-20230626 OPENFOAM=2306 version=v2306
Arch   : "LSB;label=32;scalar=64"
Exec   : openFuelCell
Date   : Nov 15 2024
Time   : 14:41:06
Host   : LAPTOP-5B06C84A
PID    : 27735
I/O    : uncollated
Case   : /home/catalina/OpenFOAM/openFuelCell2/run/SOFC
nProcs : 1
trapFpe: Floating point exception trapping enabled (FOAM_SIGFPE).
fileModificationChecking : Monitoring run-time modified files using timeStampMaster (fileModificationSkew 5, maxFileModificationPolls 20)
allowSystemOperations : Allowing user-supplied system call operations

// * * * * * * * * * * * * * * * * * * * * * * * * * * * * * * * * * * * * * //
Create time

Create mesh for time = 0

Creating fuel cell system


Reading g
Get cell properties from cellProperties


Creating regions: 
Creating air
Selecting regionType: fluid
Get region properties from regionProperties

Selecting phaseSystemType for region air: singlePhaseSystem
Creating phaseSystem from regionProperties

Creating porous model list from porousZones

Porosity region cathode:
    selecting model: DarcyForchheimer
    creating porous zone: cathode
Porosity region mpl:
    selecting model: DarcyForchheimer
    creating porous zone: mpl
Porosity region ccl:
    selecting model: DarcyForchheimer
    creating porous zone: ccl
Selecting phaseModel for air: reactingPhaseModel
Selecting thermodynamics package 
{
    type            heRhoThermo;
    mixture         multiComponentMixture;
    transport       sutherland;
    thermo          janaf;
    equationOfState perfectGas;
    specie          specie;
    energy          sensibleInternalEnergy;
}

Calculating face flux field phi
Selecting turbulence model type laminar
Selecting laminar stress model Stokes
Selecting combustion model electroChemicalReaction
Selecting saturationModel: ArdenBuck
Selecting activationOverpotentialModel: ButlerVolmer<heRhoThermo<multiComponentMixture<sutherland<janaf<perfectGas<specie>>,sensibleInternalEnergy>>>>
Selecting diffusivity model binaryFSG
Selecting diffusivity model porousFSG
Selecting diffusivity model porousFSG
Selecting diffusivity model porousFSG
No MRF models present


PIMPLE: Operating solver in PISO mode

Creating fuel
Selecting regionType: fluid
Get region properties from regionProperties

Selecting phaseSystemType for region fuel: singlePhaseSystem
Creating phaseSystem from regionProperties

Creating porous model list from porousZones

Porosity region anode:
    selecting model: DarcyForchheimer
    creating porous zone: anode
Porosity region mpl:
    selecting model: DarcyForchheimer
    creating porous zone: mpl
Porosity region acl:
    selecting model: DarcyForchheimer
    creating porous zone: acl
Selecting phaseModel for fuel: reactingPhaseModel
Selecting thermodynamics package 
{
    type            heRhoThermo;
    mixture         multiComponentMixture;
    transport       sutherland;
    thermo          janaf;
    equationOfState perfectGas;
    specie          specie;
    energy          sensibleInternalEnergy;
}

Calculating face flux field phi
Selecting turbulence model type laminar
Selecting laminar stress model Stokes
Selecting combustion model electroChemicalReaction
Selecting saturationModel: ArdenBuck
Selecting activationOverpotentialModel: ButlerVolmer<heRhoThermo<multiComponentMixture<sutherland<janaf<perfectGas<specie>>,sensibleInternalEnergy>>>>
Selecting diffusivity model binaryFSG
Selecting diffusivity model porousFSG
Selecting diffusivity model porousFSG
Selecting diffusivity model porousFSG
No MRF models present


PIMPLE: Operating solver in PISO mode

Creating electrolyte
Selecting regionType: solid
Get region properties from regionProperties

Selecting thermodynamics package 
{
    type            heSolidThermo;
    mixture         pureMixture;
    transport       constIso;
    thermo          hConst;
    equationOfState rhoConst;
    specie          specie;
    energy          sensibleEnthalpy;
}

Radiation model not active: radiationProperties not found
Selecting radiationModel none
Creating interconnect
Selecting regionType: solid
Get region properties from regionProperties

Selecting thermodynamics package 
{
    type            heSolidThermo;
    mixture         pureMixture;
    transport       constIso;
    thermo          hConst;
    equationOfState rhoConst;
    specie          specie;
    energy          sensibleEnthalpy;
}

Radiation model not active: radiationProperties not found
Selecting radiationModel none
Creating phiEA
Selecting regionType: electric
Get region properties from regionProperties

Selecting sigmaModel: constantSigma
Selecting sigmaModel: porousSigma
Selecting sigmaModel: porousSigma
Selecting sigmaModel: porousSigma
Creating phiEC
Selecting regionType: electric
Get region properties from regionProperties

Selecting sigmaModel: constantSigma
Selecting sigmaModel: porousSigma
Selecting sigmaModel: porousSigma
Selecting sigmaModel: porousSigma
Creating phiI
Selecting regionType: electric
Get region properties from regionProperties

Selecting dissolved water transfer Type: none
Selecting sigmaModel: constantSigma
Selecting sigmaModel: constantSigma
Selecting sigmaModel: constantSigma
Region: air Courant Number mean: 1.983784 max: 2
Region: fuel Courant Number mean: 0.001993243 max: 0.118

Starting time loop


Map to cell 

Map air to Cell

Map fuel to Cell

Map electrolyte to Cell

Map interconnect to Cell

Map phiEA to Cell 

Map phiEC to Cell 

Map phiI to Cell 


Time = 0.001

Region: air Courant Number mean: 1.983784 max: 2
Region: fuel Courant Number mean: 0.001993243 max: 0.118

Map from cell 

Map air from Cell

Map fuel from Cell

Map electrolyte from Cell

Map interconnect from Cell

Map phiEA from Cell 

Map phiEC from Cell 

Map phiI from Cell 

Selecting nernstModel for air: standard<heRhoThermo<multiComponentMixture<sutherland<janaf<perfectGas<specie>>,sensibleInternalEnergy>>>,heRhoThermo<multiComponentMixture<sutherland<janaf<perfectGas<specie>>,sensibleInternalEnergy>>>>
Nernst air: min = -0.588435, mean = -0.588435, max = -0.588435
Total current (A) at ccl: 2.464925

Correct diffusivity for specie: O2

diffusivityModels::binaryFSG:
    diffusing speciesA molWt diffVol: O2 31.9988 16.3
   background speciesB molWt diffVol: N2 28.0134 18.5
diffusivityModels::porousFSG:
    diffusing speciesA molWt diffVol:  O2 31.9988 16.3
    background speciesB molWt diffVol: N2 28.0134 18.5
    dPore      = dPore [0 1 0 0 0 0 0] 1.65e-05
    porosity   = 0.7
    tortuosity = 1.15
diffusivityModels::porousFSG:
    diffusing speciesA molWt diffVol:  O2 31.9988 16.3
    background speciesB molWt diffVol: N2 28.0134 18.5
    dPore      = dPore [0 1 0 0 0 0 0] 4.6e-05
    porosity   = 0.4
    tortuosity = 1.6
diffusivityModels::porousFSG:
    diffusing speciesA molWt diffVol:  O2 31.9988 16.3
    background speciesB molWt diffVol: N2 28.0134 18.5
    dPore      = dPore [0 1 0 0 0 0 0] 3.6e-05
    porosity   = 0.3
    tortuosity = 1.83
Selecting nernstModel for fuel: standard<heRhoThermo<multiComponentMixture<sutherland<janaf<perfectGas<specie>>,sensibleInternalEnergy>>>,heRhoThermo<multiComponentMixture<sutherland<janaf<perfectGas<specie>>,sensibleInternalEnergy>>>>
Nernst fuel: min = -1.744954, mean = -1.744954, max = -1.744954
Total current (A) at acl: 3.067151

Correct diffusivity for specie: H2

diffusivityModels::binaryFSG:
    diffusing speciesA molWt diffVol: H2 2.01594 6.12
   background speciesB molWt diffVol: H2O 18.01534 13.1
diffusivityModels::porousFSG:
    diffusing speciesA molWt diffVol:  H2 2.01594 6.12
    background speciesB molWt diffVol: H2O 18.01534 13.1
    dPore      = dPore [0 1 0 0 0 0 0] 1.333333e-06
    porosity   = 0.7
    tortuosity = 1.15
diffusivityModels::porousFSG:
    diffusing speciesA molWt diffVol:  H2 2.01594 6.12
    background speciesB molWt diffVol: H2O 18.01534 13.1
    dPore      = dPore [0 1 0 0 0 0 0] 1.333333e-06
    porosity   = 0.4
    tortuosity = 1.6
diffusivityModels::porousFSG:
    diffusing speciesA molWt diffVol:  H2 2.01594 6.12
    background speciesB molWt diffVol: H2O 18.01534 13.1
    dPore      = dPore [0 1 0 0 0 0 0] 1.333333e-06
    porosity   = 0.3
    tortuosity = 1.8
ibar: 30811.56	voltage: 0.7

Solve for single phase flow:

Reading hRef
Calculating field g.h

Creating field dpdt

PIMPLE: iteration 1
DILUPBiCGStab:  Solving for O2, Initial residual = 1, Final residual = 7.18259e-10, No Iterations 55
Y: O2:0.1959136 -> 0.2213509
Constructing momentum equations
DICPCG:  Solving for p_rgh, Initial residual = 1, Final residual = 0.0009192021, No Iterations 216
DICPCG:  Solving for p_rgh, Initial residual = 0.02305364, Final residual = 1.961691e-05, No Iterations 209
DICPCG:  Solving for p_rgh, Initial residual = 0.01372135, Final residual = 7.032729e-11, No Iterations 241

Solve for single phase flow:

Reading hRef
Calculating field g.h

Creating field dpdt

PIMPLE: iteration 1
DILUPBiCGStab:  Solving for H2, Initial residual = 1, Final residual = 8.166198e-12, No Iterations 158
Y: H2:0.7203984 -> 0.8668121
Constructing momentum equations
DICPCG:  Solving for p_rgh, Initial residual = 1, Final residual = 0.0005757324, No Iterations 206
DICPCG:  Solving for p_rgh, Initial residual = 0.06369009, Final residual = 5.687804e-05, No Iterations 203
DICPCG:  Solving for p_rgh, Initial residual = 0.0407061, Final residual = 7.063631e-11, No Iterations 238

Solve for region phiEA:

GAMGPCG:  Solving for phi, Initial residual = 1, Final residual = 2.615997e-11, No Iterations 11

Solve for region phiEC:

GAMGPCG:  Solving for phi, Initial residual = 1, Final residual = 6.176134e-12, No Iterations 8

Solve for region phiI:

GAMG:  Solving for phi, Initial residual = 1, Final residual = 2.635815e-14, No Iterations 2

Map to cell 

Map air to Cell

Map fuel to Cell

Map electrolyte to Cell

Map interconnect to Cell

Map phiEA to Cell 

Map phiEC to Cell 

Map phiI to Cell 

Solving for temperature:

GAMGPBiCGStab:  Solving for T, Initial residual = 1, Final residual = 3.595295e-11, No Iterations 14
T: min = 915.8129, mean = 977.8866, max = 980.7304
ExecutionTime = 2.03 s



Time = 0.002

Region: air Courant Number mean: 1.983784 max: 2
Region: fuel Courant Number mean: 0.001993243 max: 0.118

Map from cell 

Map air from Cell

Map fuel from Cell

Map electrolyte from Cell

Map interconnect from Cell

Map phiEA from Cell 

Map phiEC from Cell 

Map phiI from Cell 

Nernst air: min = -0.5915225, mean = -0.5885402, max = -0.5859391
Total current (A) at ccl: 0.8397231

Correct diffusivity for specie: O2

Nernst fuel: min = -1.744954, mean = -1.744954, max = -1.744954
Total current (A) at acl: 5.632951

Correct diffusivity for specie: H2

ibar: 10496.54	voltage: 0.9281156

Solve for single phase flow:

Reading hRef
Calculating field g.h

Creating field dpdt

PIMPLE: iteration 1
DILUPBiCGStab:  Solving for O2, Initial residual = 0.5171691, Final residual = 9.511059e-10, No Iterations 44
Y: O2:0.193468 -> 0.2315733
Constructing momentum equations
DICPCG:  Solving for p_rgh, Initial residual = 0.04682011, Final residual = 3.666865e-05, No Iterations 208
DICPCG:  Solving for p_rgh, Initial residual = 0.05728794, Final residual = 4.990675e-05, No Iterations 208
DICPCG:  Solving for p_rgh, Initial residual = 0.0167555, Final residual = 7.666729e-11, No Iterations 243

Solve for single phase flow:

Reading hRef
Calculating field g.h

Creating field dpdt

PIMPLE: iteration 1
DILUPBiCGStab:  Solving for H2, Initial residual = 0.777157, Final residual = 4.111199e-12, No Iterations 75
Y: H2:0.2922152 -> 0.7768354
Constructing momentum equations
DICPCG:  Solving for p_rgh, Initial residual = 0.05150014, Final residual = 2.733108e-05, No Iterations 205
DICPCG:  Solving for p_rgh, Initial residual = 0.01826862, Final residual = 1.748022e-05, No Iterations 204
DICPCG:  Solving for p_rgh, Initial residual = 0.01254203, Final residual = 8.557831e-11, No Iterations 235

Solve for region phiEA:

GAMGPCG:  Solving for phi, Initial residual = 0.008015172, Final residual = 1.036195e-11, No Iterations 9

Solve for region phiEC:

GAMGPCG:  Solving for phi, Initial residual = 0.9958301, Final residual = 1.907606e-11, No Iterations 8

Solve for region phiI:

GAMG:  Solving for phi, Initial residual = 0.9932807, Final residual = 2.600469e-15, No Iterations 2

Map to cell 

Map air to Cell

Map fuel to Cell

Map electrolyte to Cell

Map interconnect to Cell

Map phiEA to Cell 

Map phiEC to Cell 

Map phiI to Cell 

Solving for temperature:

GAMGPBiCGStab:  Solving for T, Initial residual = 0.4317505, Final residual = 4.506154e-11, No Iterations 13
T: min = 912.977, mean = 975.5658, max = 976.879
ExecutionTime = 3.17 s



Time = 0.003

Region: air Courant Number mean: 1.983784 max: 2
Region: fuel Courant Number mean: 0.001993243 max: 0.118

Map from cell 

Map air from Cell

Map fuel from Cell

Map electrolyte from Cell

Map interconnect from Cell

Map phiEA from Cell 

Map phiEC from Cell 

Map phiI from Cell 

Nernst air: min = -0.5963896, mean = -0.5944717, max = -0.5514804
Total current (A) at ccl: 0.8377794

Correct diffusivity for specie: O2

Nernst fuel: min = -1.740843, mean = -1.73941, max = -1.736853
Total current (A) at acl: 2.430221

Correct diffusivity for specie: H2

ibar: 10472.24	voltage: 0.953081

Solve for single phase flow:

Reading hRef
Calculating field g.h

Creating field dpdt

PIMPLE: iteration 1
DILUPBiCGStab:  Solving for O2, Initial residual = 0.2045602, Final residual = 7.491595e-10, No Iterations 35
Y: O2:0.1870735 -> 0.2298494
Constructing momentum equations
DICPCG:  Solving for p_rgh, Initial residual = 0.05985847, Final residual = 3.799019e-05, No Iterations 209
DICPCG:  Solving for p_rgh, Initial residual = 0.01931791, Final residual = 1.562342e-05, No Iterations 208
DICPCG:  Solving for p_rgh, Initial residual = 0.01240954, Final residual = 6.06239e-11, No Iterations 241

Solve for single phase flow:

Reading hRef
Calculating field g.h

Creating field dpdt

PIMPLE: iteration 1
DILUPBiCGStab:  Solving for H2, Initial residual = 0.1249196, Final residual = 8.436618e-12, No Iterations 60
Y: H2:0.1616602 -> 0.7137298
Constructing momentum equations
DICPCG:  Solving for p_rgh, Initial residual = 0.03669073, Final residual = 3.426452e-05, No Iterations 202
DICPCG:  Solving for p_rgh, Initial residual = 0.02876516, Final residual = 2.346628e-05, No Iterations 202
DICPCG:  Solving for p_rgh, Initial residual = 0.01462624, Final residual = 8.230246e-11, No Iterations 233

Solve for region phiEA:

GAMGPCG:  Solving for phi, Initial residual = 0.005563445, Final residual = 1.034351e-11, No Iterations 9

Solve for region phiEC:

GAMGPCG:  Solving for phi, Initial residual = 0.9958114, Final residual = 6.337101e-12, No Iterations 8

Solve for region phiI:

GAMG:  Solving for phi, Initial residual = 0.9547339, Final residual = 7.537964e-15, No Iterations 2

Map to cell 

Map air to Cell

Map fuel to Cell

Map electrolyte to Cell

Map interconnect to Cell

Map phiEA to Cell 

Map phiEC to Cell 

Map phiI to Cell 

Solving for temperature:

GAMGPBiCGStab:  Solving for T, Initial residual = 0.228292, Final residual = 5.684653e-11, No Iterations 12
T: min = 912.0208, mean = 975.0578, max = 976.3662
ExecutionTime = 4.27 s



Time = 0.004

Region: air Courant Number mean: 1.983784 max: 2
Region: fuel Courant Number mean: 0.001993243 max: 0.118

Map from cell 

Map air from Cell

Map fuel from Cell

Map electrolyte from Cell

Map interconnect from Cell

Map phiEA from Cell 

Map phiEC from Cell 

Map phiI from Cell 

Nernst air: min = -0.5940652, mean = -0.5926509, max = -0.5485767
Total current (A) at ccl: 1.021094

Correct diffusivity for specie: O2

Nernst fuel: min = -1.737129, mean = -1.706657, max = -1.69646
Total current (A) at acl: 1.073214

Correct diffusivity for specie: H2

ibar: 12763.67	voltage: 0.9778035

Solve for single phase flow:

Reading hRef
Calculating field g.h

Creating field dpdt

PIMPLE: iteration 1
DILUPBiCGStab:  Solving for O2, Initial residual = 0.176088, Final residual = 3.976611e-10, No Iterations 35
Y: O2:0.1790397 -> 0.2299875
Constructing momentum equations
DICPCG:  Solving for p_rgh, Initial residual = 0.02702626, Final residual = 2.19728e-05, No Iterations 209
DICPCG:  Solving for p_rgh, Initial residual = 0.01635972, Final residual = 1.145693e-05, No Iterations 206
DICPCG:  Solving for p_rgh, Initial residual = 0.01134427, Final residual = 8.20253e-11, No Iterations 238

Solve for single phase flow:

Reading hRef
Calculating field g.h

Creating field dpdt

PIMPLE: iteration 1
DILUPBiCGStab:  Solving for H2, Initial residual = 0.2734678, Final residual = 9.603939e-12, No Iterations 87
Y: H2:0.187959 -> 0.7035819
Constructing momentum equations
DICPCG:  Solving for p_rgh, Initial residual = 0.09333078, Final residual = 8.254541e-05, No Iterations 199
DICPCG:  Solving for p_rgh, Initial residual = 0.01815954, Final residual = 1.765085e-05, No Iterations 200
DICPCG:  Solving for p_rgh, Initial residual = 0.01261219, Final residual = 8.701186e-11, No Iterations 232

Solve for region phiEA:

GAMGPCG:  Solving for phi, Initial residual = 0.005456003, Final residual = 9.937235e-11, No Iterations 8

Solve for region phiEC:

GAMGPCG:  Solving for phi, Initial residual = 0.997807, Final residual = 6.434328e-12, No Iterations 8

Solve for region phiI:

GAMG:  Solving for phi, Initial residual = 0.2700797, Final residual = 6.490334e-14, No Iterations 2

Map to cell 

Map air to Cell

Map fuel to Cell

Map electrolyte to Cell

Map interconnect to Cell

Map phiEA to Cell 

Map phiEC to Cell 

Map phiI to Cell 

Solving for temperature:

GAMGPBiCGStab:  Solving for T, Initial residual = 0.2097614, Final residual = 6.890245e-11, No Iterations 13
T: min = 912.2538, mean = 976.664, max = 978.7521
ExecutionTime = 6.12 s



Time = 0.005

Region: air Courant Number mean: 1.983784 max: 2
Region: fuel Courant Number mean: 0.001993243 max: 0.118

Map from cell 

Map air from Cell

Map fuel from Cell

Map electrolyte from Cell

Map interconnect from Cell

Map phiEA from Cell 

Map phiEC from Cell 

Map phiI from Cell 

Nernst air: min = -0.5949181, mean = -0.592623, max = -0.5480745
Total current (A) at ccl: 0.6511956

Correct diffusivity for specie: O2

Nernst fuel: min = -1.70418, mean = -1.653923, max = -1.597428
Total current (A) at acl: 0.5640058

Correct diffusivity for specie: H2

ibar: 8139.945	voltage: 1.02544

Solve for single phase flow:

Reading hRef
Calculating field g.h

Creating field dpdt

PIMPLE: iteration 1
DILUPBiCGStab:  Solving for O2, Initial residual = 0.1795826, Final residual = 6.614957e-10, No Iterations 43
Y: O2:0.1779922 -> 0.2299504
Constructing momentum equations
DICPCG:  Solving for p_rgh, Initial residual = 0.02715731, Final residual = 2.664537e-05, No Iterations 207
DICPCG:  Solving for p_rgh, Initial residual = 0.01006145, Final residual = 8.444026e-06, No Iterations 204
DICPCG:  Solving for p_rgh, Initial residual = 0.006672124, Final residual = 7.547061e-11, No Iterations 238

Solve for single phase flow:

Reading hRef
Calculating field g.h

Creating field dpdt

PIMPLE: iteration 1
DILUPBiCGStab:  Solving for H2, Initial residual = 0.3565769, Final residual = 9.050383e-12, No Iterations 119
Y: H2:0.2034153 -> 0.7522381
Constructing momentum equations
DICPCG:  Solving for p_rgh, Initial residual = 0.03848838, Final residual = 3.162099e-05, No Iterations 200
DICPCG:  Solving for p_rgh, Initial residual = 0.01405868, Final residual = 1.01066e-05, No Iterations 201
DICPCG:  Solving for p_rgh, Initial residual = 0.01081598, Final residual = 7.130179e-11, No Iterations 233

Solve for region phiEA:

GAMGPCG:  Solving for phi, Initial residual = 0.004563278, Final residual = 7.811899e-12, No Iterations 9

Solve for region phiEC:

GAMGPCG:  Solving for phi, Initial residual = 0.2753602, Final residual = 1.746385e-11, No Iterations 9

Solve for region phiI:

GAMG:  Solving for phi, Initial residual = 0.3673505, Final residual = 5.238871e-14, No Iterations 2

Map to cell 

Map air to Cell

Map fuel to Cell

Map electrolyte to Cell

Map interconnect to Cell

Map phiEA to Cell 

Map phiEC to Cell 

Map phiI to Cell 

Solving for temperature:

GAMGPBiCGStab:  Solving for T, Initial residual = 0.2708887, Final residual = 7.468766e-11, No Iterations 12
T: min = 912.3612, mean = 977.4217, max = 979.6165
ExecutionTime = 7.76 s



Time = 0.006

Region: air Courant Number mean: 1.983784 max: 2
Region: fuel Courant Number mean: 0.001993243 max: 0.118

Map from cell 

Map air from Cell

Map fuel from Cell

Map electrolyte from Cell

Map interconnect from Cell

Map phiEA from Cell 

Map phiEC from Cell 

Map phiI from Cell 

Nernst air: min = -0.5973149, mean = -0.59415, max = -0.5482064
Total current (A) at ccl: 0.4465785

Correct diffusivity for specie: O2

Nernst fuel: min = -1.694936, mean = -1.639903, max = -1.59148
Total current (A) at acl: 0.1657426

Correct diffusivity for specie: H2

ibar: 5582.231	voltage: 1.02684

Solve for single phase flow:

Reading hRef
Calculating field g.h

Creating field dpdt

PIMPLE: iteration 1
DILUPBiCGStab:  Solving for O2, Initial residual = 0.1099643, Final residual = 9.162185e-10, No Iterations 36
Y: O2:0.1782494 -> 0.2300295
Constructing momentum equations
DICPCG:  Solving for p_rgh, Initial residual = 0.01645956, Final residual = 1.416588e-05, No Iterations 207
DICPCG:  Solving for p_rgh, Initial residual = 0.007380059, Final residual = 6.719036e-06, No Iterations 203
DICPCG:  Solving for p_rgh, Initial residual = 0.005177327, Final residual = 9.491722e-11, No Iterations 235

Solve for single phase flow:

Reading hRef
Calculating field g.h

Creating field dpdt

PIMPLE: iteration 1
DILUPBiCGStab:  Solving for H2, Initial residual = 0.3308345, Final residual = 7.321572e-12, No Iterations 150
Y: H2:0.2216268 -> 0.7967766
Constructing momentum equations
DICPCG:  Solving for p_rgh, Initial residual = 0.03767831, Final residual = 2.483197e-05, No Iterations 201
DICPCG:  Solving for p_rgh, Initial residual = 0.008959603, Final residual = 7.962225e-06, No Iterations 201
DICPCG:  Solving for p_rgh, Initial residual = 0.007085963, Final residual = 7.973987e-11, No Iterations 231

Solve for region phiEA:

GAMGPCG:  Solving for phi, Initial residual = 0.00678078, Final residual = 2.144936e-11, No Iterations 9

Solve for region phiEC:

GAMGPCG:  Solving for phi, Initial residual = 0.8529023, Final residual = 8.748126e-11, No Iterations 7

Solve for region phiI:

GAMG:  Solving for phi, Initial residual = 0.7210627, Final residual = 3.258078e-14, No Iterations 2

Map to cell 

Map air to Cell

Map fuel to Cell

Map electrolyte to Cell

Map interconnect to Cell

Map phiEA to Cell 

Map phiEC to Cell 

Map phiI to Cell 

Solving for temperature:

GAMGPBiCGStab:  Solving for T, Initial residual = 0.2355061, Final residual = 4.156098e-11, No Iterations 13
T: min = 912.5189, mean = 978.046, max = 980.3058
ExecutionTime = 9.36 s



Time = 0.007

Region: air Courant Number mean: 1.983784 max: 2
Region: fuel Courant Number mean: 0.001993243 max: 0.118

Map from cell 

Map air from Cell

Map fuel from Cell

Map electrolyte from Cell

Map interconnect from Cell

Map phiEA from Cell 

Map phiEC from Cell 

Map phiI from Cell 

Nernst air: min = -0.5980198, mean = -0.5947282, max = -0.5482851
Total current (A) at ccl: 0.5028683

Correct diffusivity for specie: O2

Nernst fuel: min = -1.689781, mean = -1.639558, max = -1.596294
Total current (A) at acl: 0.09517572

Correct diffusivity for specie: H2

ibar: 6285.854	voltage: 1.002662

Solve for single phase flow:

Reading hRef
Calculating field g.h

Creating field dpdt

PIMPLE: iteration 1
DILUPBiCGStab:  Solving for O2, Initial residual = 0.08005103, Final residual = 6.500938e-10, No Iterations 34
Y: O2:0.1766685 -> 0.2299284
Constructing momentum equations
DICPCG:  Solving for p_rgh, Initial residual = 0.01075344, Final residual = 9.522043e-06, No Iterations 207
DICPCG:  Solving for p_rgh, Initial residual = 0.006275711, Final residual = 4.458732e-06, No Iterations 208
DICPCG:  Solving for p_rgh, Initial residual = 0.004466202, Final residual = 8.325768e-11, No Iterations 238

Solve for single phase flow:

Reading hRef
Calculating field g.h

Creating field dpdt

PIMPLE: iteration 1
DILUPBiCGStab:  Solving for H2, Initial residual = 0.2651719, Final residual = 9.316746e-12, No Iterations 161
Y: H2:0.2428906 -> 0.8337613
Constructing momentum equations
DICPCG:  Solving for p_rgh, Initial residual = 0.02128538, Final residual = 1.32235e-05, No Iterations 201
DICPCG:  Solving for p_rgh, Initial residual = 0.009190518, Final residual = 8.098928e-06, No Iterations 201
DICPCG:  Solving for p_rgh, Initial residual = 0.007680005, Final residual = 9.181234e-11, No Iterations 231

Solve for region phiEA:

GAMGPCG:  Solving for phi, Initial residual = 0.003791586, Final residual = 1.892503e-11, No Iterations 9

Solve for region phiEC:

GAMGPCG:  Solving for phi, Initial residual = 0.856156, Final residual = 9.110545e-11, No Iterations 7

Solve for region phiI:

GAMG:  Solving for phi, Initial residual = 0.7897279, Final residual = 2.39361e-14, No Iterations 2

Map to cell 

Map air to Cell

Map fuel to Cell

Map electrolyte to Cell

Map interconnect to Cell

Map phiEA to Cell 

Map phiEC to Cell 

Map phiI to Cell 

Solving for temperature:

GAMGPBiCGStab:  Solving for T, Initial residual = 0.1324161, Final residual = 3.250567e-11, No Iterations 13
T: min = 912.8401, mean = 978.9558, max = 981.4784
ExecutionTime = 10.56 s



Time = 0.008

Region: air Courant Number mean: 1.983784 max: 2
Region: fuel Courant Number mean: 0.001993243 max: 0.118

Map from cell 

Map air from Cell

Map fuel from Cell

Map electrolyte from Cell

Map interconnect from Cell

Map phiEA from Cell 

Map phiEC from Cell 

Map phiI from Cell 

Nernst air: min = -0.5985258, mean = -0.5951465, max = -0.5483846
Total current (A) at ccl: 0.5968072

Correct diffusivity for specie: O2

Nernst fuel: min = -1.701226, mean = -1.637281, max = -1.60068
Total current (A) at acl: 0.1141351

Correct diffusivity for specie: H2

ibar: 7460.09	voltage: 0.9855205

Solve for single phase flow:

Reading hRef
Calculating field g.h

Creating field dpdt

PIMPLE: iteration 1
DILUPBiCGStab:  Solving for O2, Initial residual = 0.07119712, Final residual = 7.625687e-10, No Iterations 30
Y: O2:0.1739784 -> 0.2300826
Constructing momentum equations
DICPCG:  Solving for p_rgh, Initial residual = 0.01052403, Final residual = 1.035092e-05, No Iterations 206
DICPCG:  Solving for p_rgh, Initial residual = 0.006101588, Final residual = 4.48427e-06, No Iterations 205
DICPCG:  Solving for p_rgh, Initial residual = 0.004290302, Final residual = 6.900653e-11, No Iterations 238

Solve for single phase flow:

Reading hRef
Calculating field g.h

Creating field dpdt

PIMPLE: iteration 1
DILUPBiCGStab:  Solving for H2, Initial residual = 0.1346977, Final residual = 5.963743e-12, No Iterations 154
Y: H2:0.2625195 -> 0.8536977
Constructing momentum equations
DICPCG:  Solving for p_rgh, Initial residual = 0.03550357, Final residual = 3.522339e-05, No Iterations 200
DICPCG:  Solving for p_rgh, Initial residual = 0.01394619, Final residual = 1.099639e-05, No Iterations 201
DICPCG:  Solving for p_rgh, Initial residual = 0.01201133, Final residual = 8.222413e-11, No Iterations 232

Solve for region phiEA:

GAMGPCG:  Solving for phi, Initial residual = 0.003100552, Final residual = 2.471953e-11, No Iterations 9

Solve for region phiEC:

GAMGPCG:  Solving for phi, Initial residual = 0.6242259, Final residual = 7.45135e-11, No Iterations 7

Solve for region phiI:

GAMG:  Solving for phi, Initial residual = 0.8159324, Final residual = 2.090783e-14, No Iterations 2

Map to cell 

Map air to Cell

Map fuel to Cell

Map electrolyte to Cell

Map interconnect to Cell

Map phiEA to Cell 

Map phiEC to Cell 

Map phiI to Cell 

Solving for temperature:

GAMGPBiCGStab:  Solving for T, Initial residual = 0.1582912, Final residual = 1.933111e-11, No Iterations 13
T: min = 913.269, mean = 980.1389, max = 982.9398
ExecutionTime = 11.73 s



Time = 0.009

Region: air Courant Number mean: 1.983784 max: 2
Region: fuel Courant Number mean: 0.001993243 max: 0.118

Map from cell 

Map air from Cell

Map fuel from Cell

Map electrolyte from Cell

Map interconnect from Cell

Map phiEA from Cell 

Map phiEC from Cell 

Map phiI from Cell 

Nernst air: min = -0.5994461, mean = -0.5958626, max = -0.5486191
Total current (A) at ccl: 0.5897846

Correct diffusivity for specie: O2

Nernst fuel: min = -1.713192, mean = -1.634743, max = -1.605387
Total current (A) at acl: 0.1567564

Correct diffusivity for specie: H2

ibar: 7372.308	voltage: 0.9801214

Solve for single phase flow:

Reading hRef
Calculating field g.h

Creating field dpdt

PIMPLE: iteration 1
DILUPBiCGStab:  Solving for O2, Initial residual = 0.05169664, Final residual = 9.470332e-10, No Iterations 31
Y: O2:0.171708 -> 0.2298994
Constructing momentum equations
DICPCG:  Solving for p_rgh, Initial residual = 0.00910982, Final residual = 7.842994e-06, No Iterations 207
DICPCG:  Solving for p_rgh, Initial residual = 0.004221989, Final residual = 3.831178e-06, No Iterations 205
DICPCG:  Solving for p_rgh, Initial residual = 0.002937799, Final residual = 9.280944e-11, No Iterations 236

Solve for single phase flow:

Reading hRef
Calculating field g.h

Creating field dpdt

PIMPLE: iteration 1
DILUPBiCGStab:  Solving for H2, Initial residual = 0.1289696, Final residual = 7.157781e-12, No Iterations 167
Y: H2:0.2790058 -> 0.8571506
Constructing momentum equations
DICPCG:  Solving for p_rgh, Initial residual = 0.06044604, Final residual = 4.093895e-05, No Iterations 201
DICPCG:  Solving for p_rgh, Initial residual = 0.03973069, Final residual = 3.95126e-05, No Iterations 200
DICPCG:  Solving for p_rgh, Initial residual = 0.04379928, Final residual = 8.893492e-11, No Iterations 235

Solve for region phiEA:

GAMGPCG:  Solving for phi, Initial residual = 0.003921623, Final residual = 2.215543e-11, No Iterations 9

Solve for region phiEC:

GAMGPCG:  Solving for phi, Initial residual = 0.6189568, Final residual = 6.488836e-11, No Iterations 7

Solve for region phiI:

GAMG:  Solving for phi, Initial residual = 0.7970349, Final residual = 2.272677e-14, No Iterations 2

Map to cell 

Map air to Cell

Map fuel to Cell

Map electrolyte to Cell

Map interconnect to Cell

Map phiEA to Cell 

Map phiEC to Cell 

Map phiI to Cell 

Solving for temperature:

GAMGPBiCGStab:  Solving for T, Initial residual = 0.1397451, Final residual = 3.882911e-11, No Iterations 12
T: min = 913.6353, mean = 981.2154, max = 984.1123
ExecutionTime = 13.29 s



Time = 0.01

Region: air Courant Number mean: 1.983784 max: 2
Region: fuel Courant Number mean: 0.001993243 max: 0.118

Map from cell 

Map air from Cell

Map fuel from Cell

Map electrolyte from Cell

Map interconnect from Cell

Map phiEA from Cell 

Map phiEC from Cell 

Map phiI from Cell 

Nernst air: min = -0.600625, mean = -0.5968445, max = -0.5488893
Total current (A) at ccl: 0.5495868

Correct diffusivity for specie: O2

Nernst fuel: min = -1.723561, mean = -1.635795, max = -1.610298
Total current (A) at acl: 0.2284427

Correct diffusivity for specie: H2

ibar: 6869.835	voltage: 0.9738444

Solve for single phase flow:

Reading hRef
Calculating field g.h

Creating field dpdt

PIMPLE: iteration 1
DILUPBiCGStab:  Solving for O2, Initial residual = 0.04230561, Final residual = 2.717749e-10, No Iterations 31
Y: O2:0.169878 -> 0.2300659
Constructing momentum equations
DICPCG:  Solving for p_rgh, Initial residual = 0.004918431, Final residual = 3.197608e-06, No Iterations 209
DICPCG:  Solving for p_rgh, Initial residual = 0.003324306, Final residual = 2.494362e-06, No Iterations 208
DICPCG:  Solving for p_rgh, Initial residual = 0.002326675, Final residual = 9.326048e-11, No Iterations 235

Solve for single phase flow:

Reading hRef
Calculating field g.h

Creating field dpdt

PIMPLE: iteration 1
DILUPBiCGStab:  Solving for H2, Initial residual = 0.1358386, Final residual = 2.083531e-12, No Iterations 165
Y: H2:0.2885257 -> 0.8464324
Constructing momentum equations
DICPCG:  Solving for p_rgh, Initial residual = 0.1449347, Final residual = 0.0001046145, No Iterations 201
DICPCG:  Solving for p_rgh, Initial residual = 0.01716875, Final residual = 1.435998e-05, No Iterations 199
DICPCG:  Solving for p_rgh, Initial residual = 0.01087644, Final residual = 6.771063e-11, No Iterations 231

Solve for region phiEA:

GAMGPCG:  Solving for phi, Initial residual = 0.004326513, Final residual = 2.001712e-11, No Iterations 9

Solve for region phiEC:

GAMGPCG:  Solving for phi, Initial residual = 0.7477218, Final residual = 7.810038e-11, No Iterations 7

Solve for region phiI:

GAMG:  Solving for phi, Initial residual = 0.7416887, Final residual = 2.831592e-14, No Iterations 2

Map to cell 

Map air to Cell

Map fuel to Cell

Map electrolyte to Cell

Map interconnect to Cell

Map phiEA to Cell 

Map phiEC to Cell 

Map phiI to Cell 

Solving for temperature:

GAMGPBiCGStab:  Solving for T, Initial residual = 0.1292796, Final residual = 1.046131e-11, No Iterations 14
T: min = 913.8678, mean = 982.0535, max = 984.958
ExecutionTime = 14.93 s



Time = 0.011

Region: air Courant Number mean: 1.983784 max: 2
Region: fuel Courant Number mean: 0.001993243 max: 0.118

Map from cell 

Map air from Cell

Map fuel from Cell

Map electrolyte from Cell

Map interconnect from Cell

Map phiEA from Cell 

Map phiEC from Cell 

Map phiI from Cell 

Nernst air: min = -0.6016388, mean = -0.5976969, max = -0.54915
Total current (A) at ccl: 0.5587424

Correct diffusivity for specie: O2

Nernst fuel: min = -1.728802, mean = -1.637225, max = -1.614647
Total current (A) at acl: 0.3162069

Correct diffusivity for specie: H2

ibar: 6984.28	voltage: 0.9625428

Solve for single phase flow:

Reading hRef
Calculating field g.h

Creating field dpdt

PIMPLE: iteration 1
DILUPBiCGStab:  Solving for O2, Initial residual = 0.03679306, Final residual = 8.143444e-10, No Iterations 29
Y: O2:0.1676457 -> 0.2298853
Constructing momentum equations
DICPCG:  Solving for p_rgh, Initial residual = 0.004377621, Final residual = 3.940337e-06, No Iterations 207
DICPCG:  Solving for p_rgh, Initial residual = 0.002642013, Final residual = 2.123136e-06, No Iterations 205
DICPCG:  Solving for p_rgh, Initial residual = 0.001871198, Final residual = 8.966588e-11, No Iterations 235

Solve for single phase flow:

Reading hRef
Calculating field g.h

Creating field dpdt

PIMPLE: iteration 1
DILUPBiCGStab:  Solving for H2, Initial residual = 0.1397166, Final residual = 2.914371e-12, No Iterations 170
Y: H2:0.2752765 -> 0.8274267
Constructing momentum equations
DICPCG:  Solving for p_rgh, Initial residual = 0.03804457, Final residual = 3.027802e-05, No Iterations 200
DICPCG:  Solving for p_rgh, Initial residual = 0.008745316, Final residual = 5.852157e-06, No Iterations 199
DICPCG:  Solving for p_rgh, Initial residual = 0.00584456, Final residual = 6.979006e-11, No Iterations 230

Solve for region phiEA:

GAMGPCG:  Solving for phi, Initial residual = 0.003717094, Final residual = 1.84097e-11, No Iterations 9

Solve for region phiEC:

GAMGPCG:  Solving for phi, Initial residual = 0.7405761, Final residual = 7.826982e-11, No Iterations 7

Solve for region phiI:

GAMG:  Solving for phi, Initial residual = 0.6803971, Final residual = 3.42608e-14, No Iterations 2

Map to cell 

Map air to Cell

Map fuel to Cell

Map electrolyte to Cell

Map interconnect to Cell

Map phiEA to Cell 

Map phiEC to Cell 

Map phiI to Cell 

Solving for temperature:

GAMGPBiCGStab:  Solving for T, Initial residual = 0.1094086, Final residual = 4.473167e-11, No Iterations 14
T: min = 914.0411, mean = 982.807, max = 985.8581
ExecutionTime = 17.56 s



Time = 0.012

Region: air Courant Number mean: 1.983784 max: 2
Region: fuel Courant Number mean: 0.001993243 max: 0.118

Map from cell 

Map air from Cell

Map fuel from Cell

Map electrolyte from Cell

Map interconnect from Cell

Map phiEA from Cell 

Map phiEC from Cell 

Map phiI from Cell 

Nernst air: min = -0.6024475, mean = -0.5983381, max = -0.5492918
Total current (A) at ccl: 0.5972618

Correct diffusivity for specie: O2

Nernst fuel: min = -1.728677, mean = -1.63792, max = -1.618277
Total current (A) at acl: 0.4136418

Correct diffusivity for specie: H2

ibar: 7465.773	voltage: 0.9523856

Solve for single phase flow:

Reading hRef
Calculating field g.h

Creating field dpdt

PIMPLE: iteration 1
DILUPBiCGStab:  Solving for O2, Initial residual = 0.03046316, Final residual = 7.711297e-10, No Iterations 26
Y: O2:0.1650792 -> 0.2300616
Constructing momentum equations
DICPCG:  Solving for p_rgh, Initial residual = 0.003244794, Final residual = 2.583013e-06, No Iterations 209
DICPCG:  Solving for p_rgh, Initial residual = 0.002491612, Final residual = 1.976006e-06, No Iterations 206
DICPCG:  Solving for p_rgh, Initial residual = 0.001749409, Final residual = 7.476163e-11, No Iterations 235

Solve for single phase flow:

Reading hRef
Calculating field g.h

Creating field dpdt

PIMPLE: iteration 1
DILUPBiCGStab:  Solving for H2, Initial residual = 0.1227227, Final residual = 2.372692e-12, No Iterations 171
Y: H2:0.2575137 -> 0.8086755
Constructing momentum equations
DICPCG:  Solving for p_rgh, Initial residual = 0.02260324, Final residual = 2.258706e-05, No Iterations 198
DICPCG:  Solving for p_rgh, Initial residual = 0.006228606, Final residual = 5.630502e-06, No Iterations 198
DICPCG:  Solving for p_rgh, Initial residual = 0.004144274, Final residual = 7.66912e-11, No Iterations 228

Solve for region phiEA:

GAMGPCG:  Solving for phi, Initial residual = 0.003147163, Final residual = 8.116845e-11, No Iterations 8

Solve for region phiEC:

GAMGPCG:  Solving for phi, Initial residual = 0.5962294, Final residual = 6.434284e-11, No Iterations 7

Solve for region phiI:

GAMG:  Solving for phi, Initial residual = 0.6029786, Final residual = 4.058626e-14, No Iterations 2

Map to cell 

Map air to Cell

Map fuel to Cell

Map electrolyte to Cell

Map interconnect to Cell

Map phiEA to Cell 

Map phiEC to Cell 

Map phiI to Cell 

Solving for temperature:

GAMGPBiCGStab:  Solving for T, Initial residual = 0.1065983, Final residual = 3.768895e-11, No Iterations 12
T: min = 914.2238, mean = 983.5675, max = 986.9302
ExecutionTime = 20.03 s



Time = 0.013

Region: air Courant Number mean: 1.983784 max: 2
Region: fuel Courant Number mean: 0.001993243 max: 0.118

Map from cell 

Map air from Cell

Map fuel from Cell

Map electrolyte from Cell

Map interconnect from Cell

Map phiEA from Cell 

Map phiEC from Cell 

Map phiI from Cell 

Nernst air: min = -0.6033112, mean = -0.598936, max = -0.5494251
Total current (A) at ccl: 0.6192843

Correct diffusivity for specie: O2

Nernst fuel: min = -1.724792, mean = -1.637818, max = -1.619285
Total current (A) at acl: 0.4818281

Correct diffusivity for specie: H2

ibar: 7741.054	voltage: 0.9470433

Solve for single phase flow:

Reading hRef
Calculating field g.h

Creating field dpdt

PIMPLE: iteration 1
DILUPBiCGStab:  Solving for O2, Initial residual = 0.02728998, Final residual = 9.121526e-10, No Iterations 28
Y: O2:0.1625346 -> 0.2298657
Constructing momentum equations
DICPCG:  Solving for p_rgh, Initial residual = 0.003367863, Final residual = 3.061301e-06, No Iterations 208
DICPCG:  Solving for p_rgh, Initial residual = 0.001959603, Final residual = 1.488289e-06, No Iterations 205
DICPCG:  Solving for p_rgh, Initial residual = 0.001386085, Final residual = 9.262885e-11, No Iterations 234

Solve for single phase flow:

Reading hRef
Calculating field g.h

Creating field dpdt

PIMPLE: iteration 1
DILUPBiCGStab:  Solving for H2, Initial residual = 0.09745078, Final residual = 4.857261e-12, No Iterations 175
Y: H2:0.237858 -> 0.795395
Constructing momentum equations
DICPCG:  Solving for p_rgh, Initial residual = 0.01750118, Final residual = 1.377635e-05, No Iterations 198
DICPCG:  Solving for p_rgh, Initial residual = 0.005085638, Final residual = 4.301114e-06, No Iterations 198
DICPCG:  Solving for p_rgh, Initial residual = 0.003434161, Final residual = 8.420265e-11, No Iterations 227

Solve for region phiEA:

GAMGPCG:  Solving for phi, Initial residual = 0.002060435, Final residual = 4.750642e-11, No Iterations 8

Solve for region phiEC:

GAMGPCG:  Solving for phi, Initial residual = 0.4009484, Final residual = 4.330475e-11, No Iterations 7

Solve for region phiI:

GAMG:  Solving for phi, Initial residual = 0.4915858, Final residual = 4.467625e-14, No Iterations 2

Map to cell 

Map air to Cell

Map fuel to Cell

Map electrolyte to Cell

Map interconnect to Cell

Map phiEA to Cell 

Map phiEC to Cell 

Map phiI to Cell 

Solving for temperature:

GAMGPBiCGStab:  Solving for T, Initial residual = 0.09139593, Final residual = 1.069055e-11, No Iterations 12
T: min = 914.4267, mean = 984.3186, max = 988.1068
ExecutionTime = 22.55 s



Time = 0.014

Region: air Courant Number mean: 1.983784 max: 2
Region: fuel Courant Number mean: 0.001993243 max: 0.118

Map from cell 

Map air from Cell

Map fuel from Cell

Map electrolyte from Cell

Map interconnect from Cell

Map phiEA from Cell 

Map phiEC from Cell 

Map phiI from Cell 

Nernst air: min = -0.6043256, mean = -0.5995509, max = -0.549537
Total current (A) at ccl: 0.6185101

Correct diffusivity for specie: O2

Nernst fuel: min = -1.719498, mean = -1.636927, max = -1.616096
Total current (A) at acl: 0.5199854

Correct diffusivity for specie: H2

ibar: 7731.376	voltage: 0.9444539

Solve for single phase flow:

Reading hRef
Calculating field g.h

Creating field dpdt

PIMPLE: iteration 1
DILUPBiCGStab:  Solving for O2, Initial residual = 0.02140885, Final residual = 6.555176e-10, No Iterations 25
Y: O2:0.1603271 -> 0.2300607
Constructing momentum equations
DICPCG:  Solving for p_rgh, Initial residual = 0.002394035, Final residual = 1.681398e-06, No Iterations 207
DICPCG:  Solving for p_rgh, Initial residual = 0.001488338, Final residual = 1.349221e-06, No Iterations 204
DICPCG:  Solving for p_rgh, Initial residual = 0.001047027, Final residual = 9.223166e-11, No Iterations 234

Solve for single phase flow:

Reading hRef
Calculating field g.h

Creating field dpdt

PIMPLE: iteration 1
DILUPBiCGStab:  Solving for H2, Initial residual = 0.07641425, Final residual = 5.599149e-12, No Iterations 163
Y: H2:0.2271415 -> 0.7887819
Constructing momentum equations
DICPCG:  Solving for p_rgh, Initial residual = 0.01537035, Final residual = 1.150597e-05, No Iterations 197
DICPCG:  Solving for p_rgh, Initial residual = 0.004860271, Final residual = 3.789609e-06, No Iterations 198
DICPCG:  Solving for p_rgh, Initial residual = 0.003280991, Final residual = 7.006765e-11, No Iterations 227

Solve for region phiEA:

GAMGPCG:  Solving for phi, Initial residual = 0.00144788, Final residual = 3.718865e-11, No Iterations 8

Solve for region phiEC:

GAMGPCG:  Solving for phi, Initial residual = 0.4009392, Final residual = 4.214188e-11, No Iterations 7

Solve for region phiI:

GAMG:  Solving for phi, Initial residual = 0.3658512, Final residual = 4.604376e-14, No Iterations 2

Map to cell 

Map air to Cell

Map fuel to Cell

Map electrolyte to Cell

Map interconnect to Cell

Map phiEA to Cell 

Map phiEC to Cell 

Map phiI to Cell 

Solving for temperature:

GAMGPBiCGStab:  Solving for T, Initial residual = 0.07552151, Final residual = 8.319406e-11, No Iterations 13
T: min = 914.6345, mean = 985.0064, max = 989.2232
ExecutionTime = 24.68 s



Time = 0.015

Region: air Courant Number mean: 1.983784 max: 2
Region: fuel Courant Number mean: 0.001993243 max: 0.118

Map from cell 

Map air from Cell

Map fuel from Cell

Map electrolyte from Cell

Map interconnect from Cell

Map phiEA from Cell 

Map phiEC from Cell 

Map phiI from Cell 

Nernst air: min = -0.6054116, mean = -0.6001568, max = -0.5496858
Total current (A) at ccl: 0.6153648

Correct diffusivity for specie: O2

Nernst fuel: min = -1.714883, mean = -1.635237, max = -1.612406
Total current (A) at acl: 0.5309921

Correct diffusivity for specie: H2

ibar: 7692.06	voltage: 0.9417676

Solve for single phase flow:

Reading hRef
Calculating field g.h

Creating field dpdt

PIMPLE: iteration 1
DILUPBiCGStab:  Solving for O2, Initial residual = 0.0168366, Final residual = 6.989997e-10, No Iterations 26
Y: O2:0.158436 -> 0.2298536
Constructing momentum equations
DICPCG:  Solving for p_rgh, Initial residual = 0.001695294, Final residual = 1.567033e-06, No Iterations 208
DICPCG:  Solving for p_rgh, Initial residual = 0.001159599, Final residual = 8.586948e-07, No Iterations 208
DICPCG:  Solving for p_rgh, Initial residual = 0.0008309967, Final residual = 6.683148e-11, No Iterations 234

Solve for single phase flow:

Reading hRef
Calculating field g.h

Creating field dpdt

PIMPLE: iteration 1
DILUPBiCGStab:  Solving for H2, Initial residual = 0.06781406, Final residual = 3.250696e-12, No Iterations 173
Y: H2:0.2255543 -> 0.7873545
Constructing momentum equations
DICPCG:  Solving for p_rgh, Initial residual = 0.01461349, Final residual = 1.422014e-05, No Iterations 196
DICPCG:  Solving for p_rgh, Initial residual = 0.005001514, Final residual = 3.535836e-06, No Iterations 198
DICPCG:  Solving for p_rgh, Initial residual = 0.003359917, Final residual = 6.310846e-11, No Iterations 227

Solve for region phiEA:

GAMGPCG:  Solving for phi, Initial residual = 0.001014591, Final residual = 3.441548e-11, No Iterations 8

Solve for region phiEC:

GAMGPCG:  Solving for phi, Initial residual = 0.4343936, Final residual = 4.570065e-11, No Iterations 7

Solve for region phiI:

GAMG:  Solving for phi, Initial residual = 0.3108671, Final residual = 4.516867e-14, No Iterations 2

Map to cell 

Map air to Cell

Map fuel to Cell

Map electrolyte to Cell

Map interconnect to Cell

Map phiEA to Cell 

Map phiEC to Cell 

Map phiI to Cell 

Solving for temperature:

GAMGPBiCGStab:  Solving for T, Initial residual = 0.06545822, Final residual = 4.707625e-11, No Iterations 12
T: min = 914.8528, mean = 985.671, max = 990.3184
ExecutionTime = 26.26 s



Time = 0.016

Region: air Courant Number mean: 1.983784 max: 2
Region: fuel Courant Number mean: 0.001993243 max: 0.118

Map from cell 

Map air from Cell

Map fuel from Cell

Map electrolyte from Cell

Map interconnect from Cell

Map phiEA from Cell 

Map phiEC from Cell 

Map phiI from Cell 

Nernst air: min = -0.606463, mean = -0.6006849, max = -0.5498141
Total current (A) at ccl: 0.6181409

Correct diffusivity for specie: O2

Nernst fuel: min = -1.71191, mean = -1.632617, max = -1.608588
Total current (A) at acl: 0.5218727

Correct diffusivity for specie: H2

ibar: 7726.761	voltage: 0.9386882

Solve for single phase flow:

Reading hRef
Calculating field g.h

Creating field dpdt

PIMPLE: iteration 1
DILUPBiCGStab:  Solving for O2, Initial residual = 0.01326055, Final residual = 1.421379e-10, No Iterations 25
Y: O2:0.1568758 -> 0.2300648
Constructing momentum equations
DICPCG:  Solving for p_rgh, Initial residual = 0.001303495, Final residual = 1.187986e-06, No Iterations 209
DICPCG:  Solving for p_rgh, Initial residual = 0.0009366716, Final residual = 7.908169e-07, No Iterations 208
DICPCG:  Solving for p_rgh, Initial residual = 0.000673295, Final residual = 5.871049e-11, No Iterations 234

Solve for single phase flow:

Reading hRef
Calculating field g.h

Creating field dpdt

PIMPLE: iteration 1
DILUPBiCGStab:  Solving for H2, Initial residual = 0.06534624, Final residual = 4.075646e-12, No Iterations 149
Y: H2:0.2261422 -> 0.7889751
Constructing momentum equations
DICPCG:  Solving for p_rgh, Initial residual = 0.01511286, Final residual = 1.266416e-05, No Iterations 187
DICPCG:  Solving for p_rgh, Initial residual = 0.005589539, Final residual = 5.585155e-06, No Iterations 197
DICPCG:  Solving for p_rgh, Initial residual = 0.003671329, Final residual = 6.172789e-11, No Iterations 227

Solve for region phiEA:

GAMGPCG:  Solving for phi, Initial residual = 0.0007143325, Final residual = 3.19632e-11, No Iterations 8

Solve for region phiEC:

GAMGPCG:  Solving for phi, Initial residual = 0.4064026, Final residual = 4.297364e-11, No Iterations 7

Solve for region phiI:

GAMG:  Solving for phi, Initial residual = 0.3408131, Final residual = 4.478537e-14, No Iterations 2

Map to cell 

Map air to Cell

Map fuel to Cell

Map electrolyte to Cell

Map interconnect to Cell

Map phiEA to Cell 

Map phiEC to Cell 

Map phiI to Cell 

Solving for temperature:

GAMGPBiCGStab:  Solving for T, Initial residual = 0.06097678, Final residual = 9.53072e-11, No Iterations 11
T: min = 915.0937, mean = 986.3523, max = 991.4
ExecutionTime = 32.78 s



Time = 0.017

Region: air Courant Number mean: 1.983784 max: 2
Region: fuel Courant Number mean: 0.001993243 max: 0.118

Map from cell 

Map air from Cell

Map fuel from Cell

Map electrolyte from Cell

Map interconnect from Cell

Map phiEA from Cell 

Map phiEC from Cell 

Map phiI from Cell 

Nernst air: min = -0.6074513, mean = -0.6011781, max = -0.5499709
Total current (A) at ccl: 0.6193941

Correct diffusivity for specie: O2

Nernst fuel: min = -1.71065, mean = -1.629302, max = -1.607565
Total current (A) at acl: 0.5036518

Correct diffusivity for specie: H2

ibar: 7742.426	voltage: 0.9359558

Solve for single phase flow:

Reading hRef
Calculating field g.h

Creating field dpdt

PIMPLE: iteration 1
DILUPBiCGStab:  Solving for O2, Initial residual = 0.01131782, Final residual = 2.76323e-10, No Iterations 27
Y: O2:0.1557629 -> 0.2298419
Constructing momentum equations
DICPCG:  Solving for p_rgh, Initial residual = 0.001002688, Final residual = 9.754984e-07, No Iterations 207
DICPCG:  Solving for p_rgh, Initial residual = 0.0007529844, Final residual = 7.505518e-07, No Iterations 206
DICPCG:  Solving for p_rgh, Initial residual = 0.0005467051, Final residual = 9.083566e-11, No Iterations 231

Solve for single phase flow:

Reading hRef
Calculating field g.h

Creating field dpdt

PIMPLE: iteration 1
DILUPBiCGStab:  Solving for H2, Initial residual = 0.06206339, Final residual = 6.06124e-12, No Iterations 163
Y: H2:0.2232326 -> 0.7916162
Constructing momentum equations
DICPCG:  Solving for p_rgh, Initial residual = 0.01700244, Final residual = 1.478626e-05, No Iterations 192
DICPCG:  Solving for p_rgh, Initial residual = 0.006626037, Final residual = 5.883432e-06, No Iterations 196
DICPCG:  Solving for p_rgh, Initial residual = 0.004193483, Final residual = 6.412072e-11, No Iterations 227

Solve for region phiEA:

GAMGPCG:  Solving for phi, Initial residual = 0.0005790593, Final residual = 2.206791e-11, No Iterations 8

Solve for region phiEC:

GAMGPCG:  Solving for phi, Initial residual = 0.3910725, Final residual = 4.129162e-11, No Iterations 7

Solve for region phiI:

GAMG:  Solving for phi, Initial residual = 0.3911714, Final residual = 4.190062e-14, No Iterations 2

Map to cell 

Map air to Cell

Map fuel to Cell

Map electrolyte to Cell

Map interconnect to Cell

Map phiEA to Cell 

Map phiEC to Cell 

Map phiI to Cell 

Solving for temperature:

GAMGPBiCGStab:  Solving for T, Initial residual = 0.06044384, Final residual = 9.609322e-11, No Iterations 11
T: min = 915.3529, mean = 987.0531, max = 992.3613
ExecutionTime = 34.86 s



Time = 0.018

Region: air Courant Number mean: 1.983784 max: 2
Region: fuel Courant Number mean: 0.001993243 max: 0.118

Map from cell 

Map air from Cell

Map fuel from Cell

Map electrolyte from Cell

Map interconnect from Cell

Map phiEA from Cell 

Map phiEC from Cell 

Map phiI from Cell 

Nernst air: min = -0.6083693, mean = -0.6016684, max = -0.5501204
Total current (A) at ccl: 0.6153976

Correct diffusivity for specie: O2

Nernst fuel: min = -1.71067, mean = -1.625718, max = -1.607863
Total current (A) at acl: 0.4854062

Correct diffusivity for specie: H2

ibar: 7692.47	voltage: 0.9333801

Solve for single phase flow:

Reading hRef
Calculating field g.h

Creating field dpdt

PIMPLE: iteration 1
DILUPBiCGStab:  Solving for O2, Initial residual = 0.01014789, Final residual = 2.961767e-10, No Iterations 25
Y: O2:0.1550687 -> 0.2300681
Constructing momentum equations
DICPCG:  Solving for p_rgh, Initial residual = 0.00084195, Final residual = 8.322698e-07, No Iterations 209
DICPCG:  Solving for p_rgh, Initial residual = 0.0006109855, Final residual = 4.730617e-07, No Iterations 208
DICPCG:  Solving for p_rgh, Initial residual = 0.0004393894, Final residual = 7.067478e-11, No Iterations 232

Solve for single phase flow:

Reading hRef
Calculating field g.h

Creating field dpdt

PIMPLE: iteration 1
DILUPBiCGStab:  Solving for H2, Initial residual = 0.05521082, Final residual = 9.624243e-12, No Iterations 157
Y: H2:0.2149884 -> 0.7937066
Constructing momentum equations
DICPCG:  Solving for p_rgh, Initial residual = 0.01817127, Final residual = 1.554989e-05, No Iterations 191
DICPCG:  Solving for p_rgh, Initial residual = 0.006913638, Final residual = 6.463204e-06, No Iterations 195
DICPCG:  Solving for p_rgh, Initial residual = 0.00421669, Final residual = 6.255973e-11, No Iterations 227

Solve for region phiEA:

GAMGPCG:  Solving for phi, Initial residual = 0.0005717097, Final residual = 1.739432e-11, No Iterations 8

Solve for region phiEC:

GAMGPCG:  Solving for phi, Initial residual = 0.4334447, Final residual = 4.565098e-11, No Iterations 7

Solve for region phiI:

GAMG:  Solving for phi, Initial residual = 0.4227991, Final residual = 4.02565e-14, No Iterations 2

Map to cell 

Map air to Cell

Map fuel to Cell

Map electrolyte to Cell

Map interconnect to Cell

Map phiEA to Cell 

Map phiEC to Cell 

Map phiI to Cell 

Solving for temperature:

GAMGPBiCGStab:  Solving for T, Initial residual = 0.06041309, Final residual = 8.294585e-11, No Iterations 11
T: min = 915.6142, mean = 987.7628, max = 993.2079
ExecutionTime = 36.37 s



Time = 0.019

Region: air Courant Number mean: 1.983784 max: 2
Region: fuel Courant Number mean: 0.001993243 max: 0.118

Map from cell 

Map air from Cell

Map fuel from Cell

Map electrolyte from Cell

Map interconnect from Cell

Map phiEA from Cell 

Map phiEC from Cell 

Map phiI from Cell 

Nernst air: min = -0.6091589, mean = -0.6021615, max = -0.550304
Total current (A) at ccl: 0.6107179

Correct diffusivity for specie: O2

Nernst fuel: min = -1.71142, mean = -1.622333, max = -1.607912
Total current (A) at acl: 0.4725053

Correct diffusivity for specie: H2

ibar: 7633.974	voltage: 0.9303048

Solve for single phase flow:

Reading hRef
Calculating field g.h

Creating field dpdt

PIMPLE: iteration 1
DILUPBiCGStab:  Solving for O2, Initial residual = 0.009238678, Final residual = 7.727346e-10, No Iterations 22
Y: O2:0.1546401 -> 0.229836
Constructing momentum equations
DICPCG:  Solving for p_rgh, Initial residual = 0.0007139595, Final residual = 5.396138e-07, No Iterations 209
DICPCG:  Solving for p_rgh, Initial residual = 0.000498454, Final residual = 3.240478e-07, No Iterations 208
DICPCG:  Solving for p_rgh, Initial residual = 0.0003665201, Final residual = 8.395253e-11, No Iterations 231

Solve for single phase flow:

Reading hRef
Calculating field g.h

Creating field dpdt

PIMPLE: iteration 1
DILUPBiCGStab:  Solving for H2, Initial residual = 0.04577744, Final residual = 5.304452e-12, No Iterations 164
Y: H2:0.2028446 -> 0.7944004
Constructing momentum equations
DICPCG:  Solving for p_rgh, Initial residual = 0.01617692, Final residual = 1.311869e-05, No Iterations 191
DICPCG:  Solving for p_rgh, Initial residual = 0.005645799, Final residual = 3.741334e-06, No Iterations 189
DICPCG:  Solving for p_rgh, Initial residual = 0.003397029, Final residual = 8.984662e-11, No Iterations 226

Solve for region phiEA:

GAMGPCG:  Solving for phi, Initial residual = 0.0005364497, Final residual = 1.459996e-11, No Iterations 8

Solve for region phiEC:

GAMGPCG:  Solving for phi, Initial residual = 0.4781548, Final residual = 5.032067e-11, No Iterations 7

Solve for region phiI:

GAMG:  Solving for phi, Initial residual = 0.4362274, Final residual = 3.895315e-14, No Iterations 2

Map to cell 

Map air to Cell

Map fuel to Cell

Map electrolyte to Cell

Map interconnect to Cell

Map phiEA to Cell 

Map phiEC to Cell 

Map phiI to Cell 

Solving for temperature:

GAMGPBiCGStab:  Solving for T, Initial residual = 0.0599515, Final residual = 3.108739e-11, No Iterations 12
T: min = 915.8688, mean = 988.4693, max = 993.9485
ExecutionTime = 37.72 s



Time = 0.02

Region: air Courant Number mean: 1.983784 max: 2
Region: fuel Courant Number mean: 0.001993243 max: 0.118

Map from cell 

Map air from Cell

Map fuel from Cell

Map electrolyte from Cell

Map interconnect from Cell

Map phiEA from Cell 

Map phiEC from Cell 

Map phiI from Cell 

Nernst air: min = -0.6098202, mean = -0.6026522, max = -0.5504653
Total current (A) at ccl: 0.6093295

Correct diffusivity for specie: O2

Nernst fuel: min = -1.71238, mean = -1.61948, max = -1.606767
Total current (A) at acl: 0.4677636

Correct diffusivity for specie: H2

ibar: 7616.618	voltage: 0.9266445

Solve for single phase flow:

Reading hRef
Calculating field g.h

Creating field dpdt

PIMPLE: iteration 1
DILUPBiCGStab:  Solving for O2, Initial residual = 0.00882448, Final residual = 6.663166e-10, No Iterations 24
Y: O2:0.154348 -> 0.2300701
Constructing momentum equations
DICPCG:  Solving for p_rgh, Initial residual = 0.0007007928, Final residual = 6.878911e-07, No Iterations 208
DICPCG:  Solving for p_rgh, Initial residual = 0.0004258788, Final residual = 3.162346e-07, No Iterations 208
DICPCG:  Solving for p_rgh, Initial residual = 0.0003118735, Final residual = 7.918515e-11, No Iterations 231

Solve for single phase flow:

Reading hRef
Calculating field g.h

Creating field dpdt

PIMPLE: iteration 1
DILUPBiCGStab:  Solving for H2, Initial residual = 0.03652175, Final residual = 5.320279e-12, No Iterations 160
Y: H2:0.189182 -> 0.7935585
Constructing momentum equations
DICPCG:  Solving for p_rgh, Initial residual = 0.01236301, Final residual = 1.020658e-05, No Iterations 193
DICPCG:  Solving for p_rgh, Initial residual = 0.00400141, Final residual = 3.116292e-06, No Iterations 196
DICPCG:  Solving for p_rgh, Initial residual = 0.002428688, Final residual = 8.704461e-11, No Iterations 225

Solve for region phiEA:

GAMGPCG:  Solving for phi, Initial residual = 0.0004885379, Final residual = 9.750352e-11, No Iterations 7

Solve for region phiEC:

GAMGPCG:  Solving for phi, Initial residual = 0.4915533, Final residual = 5.181595e-11, No Iterations 7

Solve for region phiI:

GAMG:  Solving for phi, Initial residual = 0.4372327, Final residual = 3.773104e-14, No Iterations 2

Map to cell 

Map air to Cell

Map fuel to Cell

Map electrolyte to Cell

Map interconnect to Cell

Map phiEA to Cell 

Map phiEC to Cell 

Map phiI to Cell 

Solving for temperature:

GAMGPBiCGStab:  Solving for T, Initial residual = 0.05998862, Final residual = 3.957496e-11, No Iterations 11
T: min = 916.115, mean = 989.1757, max = 994.6701
ExecutionTime = 39.1 s



Time = 0.021

Region: air Courant Number mean: 1.983784 max: 2
Region: fuel Courant Number mean: 0.001993243 max: 0.118

Map from cell 

Map air from Cell

Map fuel from Cell

Map electrolyte from Cell

Map interconnect from Cell

Map phiEA from Cell 

Map phiEC from Cell 

Map phiI from Cell 

Nernst air: min = -0.6103856, mean = -0.6031319, max = -0.5506452
Total current (A) at ccl: 0.6104577

Correct diffusivity for specie: O2

Nernst fuel: min = -1.713158, mean = -1.617295, max = -1.604294
Total current (A) at acl: 0.4719066

Correct diffusivity for specie: H2

ibar: 7630.721	voltage: 0.9228107

Solve for single phase flow:

Reading hRef
Calculating field g.h

Creating field dpdt

PIMPLE: iteration 1
DILUPBiCGStab:  Solving for O2, Initial residual = 0.008077612, Final residual = 9.58221e-10, No Iterations 22
Y: O2:0.1540762 -> 0.2298314
Constructing momentum equations
DICPCG:  Solving for p_rgh, Initial residual = 0.0005108884, Final residual = 4.047488e-07, No Iterations 209
DICPCG:  Solving for p_rgh, Initial residual = 0.0003612983, Final residual = 2.997542e-07, No Iterations 205
DICPCG:  Solving for p_rgh, Initial residual = 0.0002628298, Final residual = 6.058839e-11, No Iterations 229

Solve for single phase flow:

Reading hRef
Calculating field g.h

Creating field dpdt

PIMPLE: iteration 1
DILUPBiCGStab:  Solving for H2, Initial residual = 0.02867039, Final residual = 9.819673e-12, No Iterations 158
Y: H2:0.1769591 -> 0.79151
Constructing momentum equations
DICPCG:  Solving for p_rgh, Initial residual = 0.008952851, Final residual = 7.436291e-06, No Iterations 194
DICPCG:  Solving for p_rgh, Initial residual = 0.002824771, Final residual = 2.231369e-06, No Iterations 196
DICPCG:  Solving for p_rgh, Initial residual = 0.001739214, Final residual = 5.386612e-11, No Iterations 225

Solve for region phiEA:

GAMGPCG:  Solving for phi, Initial residual = 0.0004598215, Final residual = 9.864788e-11, No Iterations 7

Solve for region phiEC:

GAMGPCG:  Solving for phi, Initial residual = 0.4827091, Final residual = 5.094995e-11, No Iterations 7

Solve for region phiI:

GAMG:  Solving for phi, Initial residual = 0.4227696, Final residual = 3.779756e-14, No Iterations 2

Map to cell 

Map air to Cell

Map fuel to Cell

Map electrolyte to Cell

Map interconnect to Cell

Map phiEA to Cell 

Map phiEC to Cell 

Map phiI to Cell 

Solving for temperature:

GAMGPBiCGStab:  Solving for T, Initial residual = 0.0598907, Final residual = 9.879739e-11, No Iterations 12
T: min = 916.3543, mean = 989.8835, max = 995.4016
ExecutionTime = 40.43 s



Time = 0.022

Region: air Courant Number mean: 1.983784 max: 2
Region: fuel Courant Number mean: 0.001993243 max: 0.118

Map from cell 

Map air from Cell

Map fuel from Cell

Map electrolyte from Cell

Map interconnect from Cell

Map phiEA from Cell 

Map phiEC from Cell 

Map phiI from Cell 

Nernst air: min = -0.6109125, mean = -0.6036093, max = -0.5507961
Total current (A) at ccl: 0.6121224

Correct diffusivity for specie: O2

Nernst fuel: min = -1.71356, mean = -1.615752, max = -1.600877
Total current (A) at acl: 0.4835519

Correct diffusivity for specie: H2

ibar: 7651.53	voltage: 0.9191179

Solve for single phase flow:

Reading hRef
Calculating field g.h

Creating field dpdt

PIMPLE: iteration 1
DILUPBiCGStab:  Solving for O2, Initial residual = 0.007880317, Final residual = 9.808542e-10, No Iterations 24
Y: O2:0.1538221 -> 0.23007
Constructing momentum equations
DICPCG:  Solving for p_rgh, Initial residual = 0.0004457952, Final residual = 4.359098e-07, No Iterations 207
DICPCG:  Solving for p_rgh, Initial residual = 0.0002891979, Final residual = 2.460229e-07, No Iterations 205
DICPCG:  Solving for p_rgh, Initial residual = 0.0002156773, Final residual = 8.529306e-11, No Iterations 228

Solve for single phase flow:

Reading hRef
Calculating field g.h

Creating field dpdt

PIMPLE: iteration 1
DILUPBiCGStab:  Solving for H2, Initial residual = 0.02250286, Final residual = 8.764287e-12, No Iterations 167
Y: H2:0.166669 -> 0.7887815
Constructing momentum equations
DICPCG:  Solving for p_rgh, Initial residual = 0.006729736, Final residual = 5.484618e-06, No Iterations 194
DICPCG:  Solving for p_rgh, Initial residual = 0.002117166, Final residual = 2.019677e-06, No Iterations 194
DICPCG:  Solving for p_rgh, Initial residual = 0.0013268, Final residual = 7.328072e-11, No Iterations 224

Solve for region phiEA:

GAMGPCG:  Solving for phi, Initial residual = 0.0004607044, Final residual = 8.634181e-12, No Iterations 8

Solve for region phiEC:

GAMGPCG:  Solving for phi, Initial residual = 0.467765, Final residual = 4.935624e-11, No Iterations 7

Solve for region phiI:

GAMG:  Solving for phi, Initial residual = 0.3906819, Final residual = 3.729574e-14, No Iterations 2

Map to cell 

Map air to Cell

Map fuel to Cell

Map electrolyte to Cell

Map interconnect to Cell

Map phiEA to Cell 

Map phiEC to Cell 

Map phiI to Cell 

Solving for temperature:

GAMGPBiCGStab:  Solving for T, Initial residual = 0.05883685, Final residual = 6.398978e-11, No Iterations 11
T: min = 916.586, mean = 990.5854, max = 996.1812
ExecutionTime = 41.8 s



Time = 0.023

Region: air Courant Number mean: 1.983784 max: 2
Region: fuel Courant Number mean: 0.001993243 max: 0.118

Map from cell 

Map air from Cell

Map fuel from Cell

Map electrolyte from Cell

Map interconnect from Cell

Map phiEA from Cell 

Map phiEC from Cell 

Map phiI from Cell 

Nernst air: min = -0.6114427, mean = -0.6040896, max = -0.5509661
Total current (A) at ccl: 0.6140233

Correct diffusivity for specie: O2

Nernst fuel: min = -1.713571, mean = -1.614716, max = -1.597518
Total current (A) at acl: 0.4997755

Correct diffusivity for specie: H2

ibar: 7675.291	voltage: 0.9156332

Solve for single phase flow:

Reading hRef
Calculating field g.h

Creating field dpdt

PIMPLE: iteration 1
DILUPBiCGStab:  Solving for O2, Initial residual = 0.007102792, Final residual = 2.580625e-10, No Iterations 24
Y: O2:0.1535388 -> 0.2298283
Constructing momentum equations
DICPCG:  Solving for p_rgh, Initial residual = 0.0004302656, Final residual = 3.557382e-07, No Iterations 208
DICPCG:  Solving for p_rgh, Initial residual = 0.0002662938, Final residual = 2.081566e-07, No Iterations 208
DICPCG:  Solving for p_rgh, Initial residual = 0.0001892871, Final residual = 6.699731e-11, No Iterations 228

Solve for single phase flow:

Reading hRef
Calculating field g.h

Creating field dpdt

PIMPLE: iteration 1
DILUPBiCGStab:  Solving for H2, Initial residual = 0.01794621, Final residual = 6.743043e-12, No Iterations 163
Y: H2:0.1589733 -> 0.7858967
Constructing momentum equations
DICPCG:  Solving for p_rgh, Initial residual = 0.005155374, Final residual = 4.164387e-06, No Iterations 195
DICPCG:  Solving for p_rgh, Initial residual = 0.001643139, Final residual = 1.454468e-06, No Iterations 194
DICPCG:  Solving for p_rgh, Initial residual = 0.001045942, Final residual = 7.272629e-11, No Iterations 223

Solve for region phiEA:

GAMGPCG:  Solving for phi, Initial residual = 0.0004495182, Final residual = 8.895515e-11, No Iterations 7

Solve for region phiEC:

GAMGPCG:  Solving for phi, Initial residual = 0.4495486, Final residual = 4.74426e-11, No Iterations 7

Solve for region phiI:

GAMG:  Solving for phi, Initial residual = 0.3464007, Final residual = 3.800469e-14, No Iterations 2

Map to cell 

Map air to Cell

Map fuel to Cell

Map electrolyte to Cell

Map interconnect to Cell

Map phiEA to Cell 

Map phiEC to Cell 

Map phiI to Cell 

Solving for temperature:

GAMGPBiCGStab:  Solving for T, Initial residual = 0.05670443, Final residual = 6.969977e-11, No Iterations 11
T: min = 916.8124, mean = 991.269, max = 996.9638
ExecutionTime = 43.19 s



Time = 0.024

Region: air Courant Number mean: 1.983784 max: 2
Region: fuel Courant Number mean: 0.001993243 max: 0.118

Map from cell 

Map air from Cell

Map fuel from Cell

Map electrolyte from Cell

Map interconnect from Cell

Map phiEA from Cell 

Map phiEC from Cell 

Map phiI from Cell 

Nernst air: min = -0.6119924, mean = -0.6045663, max = -0.5511072
Total current (A) at ccl: 0.6165979

Correct diffusivity for specie: O2

Nernst fuel: min = -1.713287, mean = -1.614004, max = -1.59447
Total current (A) at acl: 0.5172757

Correct diffusivity for specie: H2

ibar: 7707.474	voltage: 0.9123861

Solve for single phase flow:

Reading hRef
Calculating field g.h

Creating field dpdt

PIMPLE: iteration 1
DILUPBiCGStab:  Solving for O2, Initial residual = 0.006959567, Final residual = 6.980369e-10, No Iterations 23
Y: O2:0.1532503 -> 0.23007
Constructing momentum equations
DICPCG:  Solving for p_rgh, Initial residual = 0.0003902671, Final residual = 2.565019e-07, No Iterations 208
DICPCG:  Solving for p_rgh, Initial residual = 0.0002237925, Final residual = 1.941988e-07, No Iterations 204
DICPCG:  Solving for p_rgh, Initial residual = 0.0001634795, Final residual = 9.452644e-11, No Iterations 228

Solve for single phase flow:

Reading hRef
Calculating field g.h

Creating field dpdt

PIMPLE: iteration 1
DILUPBiCGStab:  Solving for H2, Initial residual = 0.0149397, Final residual = 2.652743e-12, No Iterations 162
Y: H2:0.153672 -> 0.783256
Constructing momentum equations
DICPCG:  Solving for p_rgh, Initial residual = 0.00392022, Final residual = 3.39935e-06, No Iterations 195
DICPCG:  Solving for p_rgh, Initial residual = 0.001258018, Final residual = 1.184315e-06, No Iterations 193
DICPCG:  Solving for p_rgh, Initial residual = 0.000812844, Final residual = 8.646729e-11, No Iterations 222

Solve for region phiEA:

GAMGPCG:  Solving for phi, Initial residual = 0.0004031071, Final residual = 7.652621e-11, No Iterations 7

Solve for region phiEC:

GAMGPCG:  Solving for phi, Initial residual = 0.4231223, Final residual = 4.465581e-11, No Iterations 7

Solve for region phiI:

GAMG:  Solving for phi, Initial residual = 0.3003687, Final residual = 3.764376e-14, No Iterations 2

Map to cell 

Map air to Cell

Map fuel to Cell

Map electrolyte to Cell

Map interconnect to Cell

Map phiEA to Cell 

Map phiEC to Cell 

Map phiI to Cell 

Solving for temperature:

GAMGPBiCGStab:  Solving for T, Initial residual = 0.05476516, Final residual = 4.262604e-11, No Iterations 11
T: min = 917.0361, mean = 991.9433, max = 997.7836
ExecutionTime = 44.55 s



Time = 0.025

Region: air Courant Number mean: 1.983784 max: 2
Region: fuel Courant Number mean: 0.001993243 max: 0.118

Map from cell 

Map air from Cell

Map fuel from Cell

Map electrolyte from Cell

Map interconnect from Cell

Map phiEA from Cell 

Map phiEC from Cell 

Map phiI from Cell 

Nernst air: min = -0.6125557, mean = -0.6050274, max = -0.5512686
Total current (A) at ccl: 0.6195238

Correct diffusivity for specie: O2

Nernst fuel: min = -1.712848, mean = -1.613435, max = -1.592072
Total current (A) at acl: 0.5333942

Correct diffusivity for specie: H2

ibar: 7744.047	voltage: 0.9094609

Solve for single phase flow:

Reading hRef
Calculating field g.h

Creating field dpdt

PIMPLE: iteration 1
DILUPBiCGStab:  Solving for O2, Initial residual = 0.006262209, Final residual = 7.15755e-10, No Iterations 23
Y: O2:0.1529276 -> 0.2298255
Constructing momentum equations
DICPCG:  Solving for p_rgh, Initial residual = 0.0003408608, Final residual = 3.152467e-07, No Iterations 204
DICPCG:  Solving for p_rgh, Initial residual = 0.0002056515, Final residual = 1.6623e-07, No Iterations 204
DICPCG:  Solving for p_rgh, Initial residual = 0.0001465531, Final residual = 5.415689e-11, No Iterations 228

Solve for single phase flow:

Reading hRef
Calculating field g.h

Creating field dpdt

PIMPLE: iteration 1
DILUPBiCGStab:  Solving for H2, Initial residual = 0.01357092, Final residual = 7.972205e-12, No Iterations 169
Y: H2:0.1501796 -> 0.7810832
Constructing momentum equations
DICPCG:  Solving for p_rgh, Initial residual = 0.002915753, Final residual = 2.377011e-06, No Iterations 194
DICPCG:  Solving for p_rgh, Initial residual = 0.0009482416, Final residual = 5.338368e-07, No Iterations 189
DICPCG:  Solving for p_rgh, Initial residual = 0.0006187694, Final residual = 7.872776e-11, No Iterations 221

Solve for region phiEA:

GAMGPCG:  Solving for phi, Initial residual = 0.0003278743, Final residual = 6.621237e-11, No Iterations 7

Solve for region phiEC:

GAMGPCG:  Solving for phi, Initial residual = 0.3899039, Final residual = 4.119497e-11, No Iterations 7

Solve for region phiI:

GAMG:  Solving for phi, Initial residual = 0.2588397, Final residual = 3.733406e-14, No Iterations 2

Map to cell 

Map air to Cell

Map fuel to Cell

Map electrolyte to Cell

Map interconnect to Cell

Map phiEA to Cell 

Map phiEC to Cell 

Map phiI to Cell 

Solving for temperature:

GAMGPBiCGStab:  Solving for T, Initial residual = 0.05276831, Final residual = 9.986282e-12, No Iterations 13
T: min = 917.261, mean = 992.6042, max = 998.5915
ExecutionTime = 45.94 s



Time = 0.026

Region: air Courant Number mean: 1.983784 max: 2
Region: fuel Courant Number mean: 0.001993243 max: 0.118

Map from cell 

Map air from Cell

Map fuel from Cell

Map electrolyte from Cell

Map interconnect from Cell

Map phiEA from Cell 

Map phiEC from Cell 

Map phiI from Cell 

Nernst air: min = -0.6131354, mean = -0.6054855, max = -0.5514043
Total current (A) at ccl: 0.6219584

Correct diffusivity for specie: O2

Nernst fuel: min = -1.712388, mean = -1.612873, max = -1.590406
Total current (A) at acl: 0.5465481

Correct diffusivity for specie: H2

ibar: 7774.481	voltage: 0.9069013

Solve for single phase flow:

Reading hRef
Calculating field g.h

Creating field dpdt

PIMPLE: iteration 1
DILUPBiCGStab:  Solving for O2, Initial residual = 0.006140022, Final residual = 7.408496e-10, No Iterations 23
Y: O2:0.1526153 -> 0.2300704
Constructing momentum equations
DICPCG:  Solving for p_rgh, Initial residual = 0.0003397245, Final residual = 2.629331e-07, No Iterations 207
DICPCG:  Solving for p_rgh, Initial residual = 0.0001748362, Final residual = 1.738056e-07, No Iterations 207
DICPCG:  Solving for p_rgh, Initial residual = 0.0001273891, Final residual = 6.708307e-11, No Iterations 228

Solve for single phase flow:

Reading hRef
Calculating field g.h

Creating field dpdt

PIMPLE: iteration 1
DILUPBiCGStab:  Solving for H2, Initial residual = 0.01334096, Final residual = 4.651613e-12, No Iterations 165
Y: H2:0.1477191 -> 0.7794322
Constructing momentum equations
DICPCG:  Solving for p_rgh, Initial residual = 0.002218745, Final residual = 1.74951e-06, No Iterations 192
DICPCG:  Solving for p_rgh, Initial residual = 0.0006942362, Final residual = 5.426294e-07, No Iterations 189
DICPCG:  Solving for p_rgh, Initial residual = 0.0004544193, Final residual = 8.699216e-11, No Iterations 220

Solve for region phiEA:

GAMGPCG:  Solving for phi, Initial residual = 0.0002435786, Final residual = 5.353165e-11, No Iterations 7

Solve for region phiEC:

GAMGPCG:  Solving for phi, Initial residual = 0.3591493, Final residual = 3.791457e-11, No Iterations 7

Solve for region phiI:

GAMG:  Solving for phi, Initial residual = 0.2239542, Final residual = 3.634591e-14, No Iterations 2

Map to cell 

Map air to Cell

Map fuel to Cell

Map electrolyte to Cell

Map interconnect to Cell

Map phiEA to Cell 

Map phiEC to Cell 

Map phiI to Cell 

Solving for temperature:

GAMGPBiCGStab:  Solving for T, Initial residual = 0.05138697, Final residual = 6.927835e-11, No Iterations 11
T: min = 917.4876, mean = 993.2574, max = 999.3912
ExecutionTime = 47.3 s



Time = 0.027

Region: air Courant Number mean: 1.983784 max: 2
Region: fuel Courant Number mean: 0.001993243 max: 0.118

Map from cell 

Map air from Cell

Map fuel from Cell

Map electrolyte from Cell

Map interconnect from Cell

Map phiEA from Cell 

Map phiEC from Cell 

Map phiI from Cell 

Nernst air: min = -0.6137161, mean = -0.6059326, max = -0.5515646
Total current (A) at ccl: 0.6235924

Correct diffusivity for specie: O2

Nernst fuel: min = -1.712004, mean = -1.612235, max = -1.589363
Total current (A) at acl: 0.5561603

Correct diffusivity for specie: H2

ibar: 7794.905	voltage: 0.9046462

Solve for single phase flow:

Reading hRef
Calculating field g.h

Creating field dpdt

PIMPLE: iteration 1
DILUPBiCGStab:  Solving for O2, Initial residual = 0.005433889, Final residual = 8.346392e-10, No Iterations 23
Y: O2:0.1522956 -> 0.2298232
Constructing momentum equations
DICPCG:  Solving for p_rgh, Initial residual = 0.0002836333, Final residual = 2.82125e-07, No Iterations 207
DICPCG:  Solving for p_rgh, Initial residual = 0.0001603324, Final residual = 1.588773e-07, No Iterations 207
DICPCG:  Solving for p_rgh, Initial residual = 0.0001135345, Final residual = 6.010684e-11, No Iterations 228

Solve for single phase flow:

Reading hRef
Calculating field g.h

Creating field dpdt

PIMPLE: iteration 1
DILUPBiCGStab:  Solving for H2, Initial residual = 0.01370858, Final residual = 7.680247e-12, No Iterations 160
Y: H2:0.1455369 -> 0.7782349
Constructing momentum equations
DICPCG:  Solving for p_rgh, Initial residual = 0.001795078, Final residual = 1.656835e-06, No Iterations 192
DICPCG:  Solving for p_rgh, Initial residual = 0.0005463678, Final residual = 5.197598e-07, No Iterations 189
DICPCG:  Solving for p_rgh, Initial residual = 0.0003565579, Final residual = 6.657307e-11, No Iterations 220

Solve for region phiEA:

GAMGPCG:  Solving for phi, Initial residual = 0.0001692753, Final residual = 3.84443e-11, No Iterations 7

Solve for region phiEC:

GAMGPCG:  Solving for phi, Initial residual = 0.3367207, Final residual = 3.554959e-11, No Iterations 7

Solve for region phiI:

GAMG:  Solving for phi, Initial residual = 0.1975479, Final residual = 3.627244e-14, No Iterations 2

Map to cell 

Map air to Cell

Map fuel to Cell

Map electrolyte to Cell

Map interconnect to Cell

Map phiEA to Cell 

Map phiEC to Cell 

Map phiI to Cell 

Solving for temperature:

GAMGPBiCGStab:  Solving for T, Initial residual = 0.05002617, Final residual = 4.882795e-11, No Iterations 11
T: min = 917.7168, mean = 993.9024, max = 1000.145
ExecutionTime = 48.64 s



Time = 0.028

Region: air Courant Number mean: 1.983784 max: 2
Region: fuel Courant Number mean: 0.001993243 max: 0.118

Map from cell 

Map air from Cell

Map fuel from Cell

Map electrolyte from Cell

Map interconnect from Cell

Map phiEA from Cell 

Map phiEC from Cell 

Map phiI from Cell 

Nernst air: min = -0.6142872, mean = -0.6063754, max = -0.551702
Total current (A) at ccl: 0.6246354

Correct diffusivity for specie: O2

Nernst fuel: min = -1.711744, mean = -1.611496, max = -1.588718
Total current (A) at acl: 0.5624789

Correct diffusivity for specie: H2

ibar: 7807.942	voltage: 0.9025952

Solve for single phase flow:

Reading hRef
Calculating field g.h

Creating field dpdt

PIMPLE: iteration 1
DILUPBiCGStab:  Solving for O2, Initial residual = 0.005261743, Final residual = 9.035925e-10, No Iterations 23
Y: O2:0.1520118 -> 0.2300715
Constructing momentum equations
DICPCG:  Solving for p_rgh, Initial residual = 0.0002497731, Final residual = 2.241753e-07, No Iterations 208
DICPCG:  Solving for p_rgh, Initial residual = 0.000128927, Final residual = 9.509357e-08, No Iterations 209
DICPCG:  Solving for p_rgh, Initial residual = 9.334133e-05, Final residual = 6.706114e-11, No Iterations 228

Solve for single phase flow:

Reading hRef
Calculating field g.h

Creating field dpdt

PIMPLE: iteration 1
DILUPBiCGStab:  Solving for H2, Initial residual = 0.01374007, Final residual = 9.563393e-12, No Iterations 160
Y: H2:0.1430993 -> 0.7773645
Constructing momentum equations
DICPCG:  Solving for p_rgh, Initial residual = 0.001521261, Final residual = 1.14258e-06, No Iterations 193
DICPCG:  Solving for p_rgh, Initial residual = 0.0004563928, Final residual = 4.326774e-07, No Iterations 189
DICPCG:  Solving for p_rgh, Initial residual = 0.0002974835, Final residual = 5.165841e-11, No Iterations 220

Solve for region phiEA:

GAMGPCG:  Solving for phi, Initial residual = 0.0001093594, Final residual = 2.546332e-11, No Iterations 7

Solve for region phiEC:

GAMGPCG:  Solving for phi, Initial residual = 0.3216352, Final residual = 3.392483e-11, No Iterations 7

Solve for region phiI:

GAMG:  Solving for phi, Initial residual = 0.1793772, Final residual = 3.566252e-14, No Iterations 2

Map to cell 

Map air to Cell

Map fuel to Cell

Map electrolyte to Cell

Map interconnect to Cell

Map phiEA to Cell 

[...]
Y: O2:0.1569438 -> 0.2296691
Constructing momentum equations
DICPCG:  Solving for p_rgh, Initial residual = 4.979131e-06, Final residual = 4.276323e-09, No Iterations 208
DICPCG:  Solving for p_rgh, Initial residual = 2.156049e-06, Final residual = 1.204928e-09, No Iterations 211
DICPCG:  Solving for p_rgh, Initial residual = 1.224108e-06, Final residual = 9.38515e-11, No Iterations 217

Solve for single phase flow:

Reading hRef
Calculating field g.h

Creating field dpdt

PIMPLE: iteration 1
DILUPBiCGStab:  Solving for H2, Initial residual = 6.928172e-06, Final residual = 4.73248e-12, No Iterations 138
Y: H2:0.08621352 -> 0.8121521
Constructing momentum equations
DICPCG:  Solving for p_rgh, Initial residual = 1.706059e-06, Final residual = 1.355168e-09, No Iterations 197
DICPCG:  Solving for p_rgh, Initial residual = 6.528669e-07, Final residual = 6.458082e-10, No Iterations 191
DICPCG:  Solving for p_rgh, Initial residual = 4.095526e-07, Final residual = 6.389218e-11, No Iterations 199

Solve for region phiEA:

GAMGPCG:  Solving for phi, Initial residual = 1.81907e-07, Final residual = 5.966061e-11, No Iterations 4

Solve for region phiEC:

GAMGPCG:  Solving for phi, Initial residual = 0.002145814, Final residual = 4.614678e-12, No Iterations 6

Solve for region phiI:

GAMG:  Solving for phi, Initial residual = 0.0001830894, Final residual = 1.36127e-14, No Iterations 1

Map to cell 

Map air to Cell

Map fuel to Cell

Map electrolyte to Cell

Map interconnect to Cell

Map phiEA to Cell 

Map phiEC to Cell 

Map phiI to Cell 

Solving for temperature:

GAMGPBiCGStab:  Solving for T, Initial residual = 0.0006854034, Final residual = 4.287418e-11, No Iterations 8
T: min = 1026.181, mean = 1241.63, max = 1253.759
ExecutionTime = 1851.14 s



Time = 1.494

Region: air Courant Number mean: 1.983784 max: 2
Region: fuel Courant Number mean: 0.001993243 max: 0.118

Map from cell 

Map air from Cell

Map fuel from Cell

Map electrolyte from Cell

Map interconnect from Cell

Map phiEA from Cell 

Map phiEC from Cell 

Map phiI from Cell 

Nernst air: min = -0.7877574, mean = -0.7754044, max = -0.6237347
Total current (A) at ccl: 0.639934

Correct diffusivity for specie: O2

Nernst fuel: min = -1.840948, mean = -1.693598, max = -1.649967
Total current (A) at acl: 0.6401879

Correct diffusivity for specie: H2

ibar: 7999.174	voltage: 0.7462956

Solve for single phase flow:

Reading hRef
Calculating field g.h

Creating field dpdt

PIMPLE: iteration 1
DILUPBiCGStab:  Solving for O2, Initial residual = 0.0004500563, Final residual = 5.444174e-10, No Iterations 22
Y: O2:0.1569472 -> 0.2300632
Constructing momentum equations
DICPCG:  Solving for p_rgh, Initial residual = 6.029917e-06, Final residual = 6.007767e-09, No Iterations 212
DICPCG:  Solving for p_rgh, Initial residual = 2.47645e-06, Final residual = 1.465032e-09, No Iterations 211
DICPCG:  Solving for p_rgh, Initial residual = 1.399281e-06, Final residual = 7.893885e-11, No Iterations 217

Solve for single phase flow:

Reading hRef
Calculating field g.h

Creating field dpdt

PIMPLE: iteration 1
DILUPBiCGStab:  Solving for H2, Initial residual = 6.905875e-06, Final residual = 9.710355e-12, No Iterations 125
Y: H2:0.08621304 -> 0.8121549
Constructing momentum equations
DICPCG:  Solving for p_rgh, Initial residual = 1.724627e-06, Final residual = 1.181229e-09, No Iterations 197
DICPCG:  Solving for p_rgh, Initial residual = 6.394939e-07, Final residual = 6.352082e-10, No Iterations 191
DICPCG:  Solving for p_rgh, Initial residual = 4.01589e-07, Final residual = 6.426003e-11, No Iterations 199

Solve for region phiEA:

GAMGPCG:  Solving for phi, Initial residual = 1.824244e-07, Final residual = 5.988887e-11, No Iterations 4

Solve for region phiEC:

GAMGPCG:  Solving for phi, Initial residual = 0.001982227, Final residual = 9.927487e-11, No Iterations 5

Solve for region phiI:

GAMG:  Solving for phi, Initial residual = 0.0001788024, Final residual = 1.385668e-14, No Iterations 1

Map to cell 

Map air to Cell

Map fuel to Cell

Map electrolyte to Cell

Map interconnect to Cell

Map phiEA to Cell 

Map phiEC to Cell 

Map phiI to Cell 

Solving for temperature:

GAMGPBiCGStab:  Solving for T, Initial residual = 0.0006845482, Final residual = 9.059217e-11, No Iterations 8
T: min = 1026.189, mean = 1241.648, max = 1253.776
ExecutionTime = 1852.2 s



Time = 1.495

Region: air Courant Number mean: 1.983784 max: 2
Region: fuel Courant Number mean: 0.001993243 max: 0.118

Map from cell 

Map air from Cell

Map fuel from Cell

Map electrolyte from Cell

Map interconnect from Cell

Map phiEA from Cell 

Map phiEC from Cell 

Map phiI from Cell 

Nernst air: min = -0.7877698, mean = -0.7754168, max = -0.6237606
Total current (A) at ccl: 0.6399288

Correct diffusivity for specie: O2

Nernst fuel: min = -1.840958, mean = -1.693605, max = -1.649972
Total current (A) at acl: 0.6401877

Correct diffusivity for specie: H2

ibar: 7999.11	voltage: 0.7462873

Solve for single phase flow:

Reading hRef
Calculating field g.h

Creating field dpdt

PIMPLE: iteration 1
DILUPBiCGStab:  Solving for O2, Initial residual = 0.0005596727, Final residual = 1.505135e-10, No Iterations 24
Y: O2:0.1569457 -> 0.2296691
Constructing momentum equations
DICPCG:  Solving for p_rgh, Initial residual = 4.953186e-06, Final residual = 3.806228e-09, No Iterations 211
DICPCG:  Solving for p_rgh, Initial residual = 2.135217e-06, Final residual = 2.12093e-09, No Iterations 210
DICPCG:  Solving for p_rgh, Initial residual = 1.220847e-06, Final residual = 9.491367e-11, No Iterations 217

Solve for single phase flow:

Reading hRef
Calculating field g.h

Creating field dpdt

PIMPLE: iteration 1
DILUPBiCGStab:  Solving for H2, Initial residual = 6.904203e-06, Final residual = 7.702366e-12, No Iterations 138
Y: H2:0.08621256 -> 0.8121576
Constructing momentum equations
DICPCG:  Solving for p_rgh, Initial residual = 1.698868e-06, Final residual = 1.350138e-09, No Iterations 197
DICPCG:  Solving for p_rgh, Initial residual = 6.501878e-07, Final residual = 6.431997e-10, No Iterations 191
DICPCG:  Solving for p_rgh, Initial residual = 4.078654e-07, Final residual = 6.368895e-11, No Iterations 199

Solve for region phiEA:

GAMGPCG:  Solving for phi, Initial residual = 1.813535e-07, Final residual = 5.945879e-11, No Iterations 4

Solve for region phiEC:

GAMGPCG:  Solving for phi, Initial residual = 0.002136176, Final residual = 4.594963e-12, No Iterations 6

Solve for region phiI:

GAMG:  Solving for phi, Initial residual = 0.000182237, Final residual = 1.361919e-14, No Iterations 1

Map to cell 

Map air to Cell

Map fuel to Cell

Map electrolyte to Cell

Map interconnect to Cell

Map phiEA to Cell 

Map phiEC to Cell 

Map phiI to Cell 

Solving for temperature:

GAMGPBiCGStab:  Solving for T, Initial residual = 0.0006822379, Final residual = 4.331895e-11, No Iterations 8
T: min = 1026.198, mean = 1241.666, max = 1253.794
ExecutionTime = 1853.3 s



Time = 1.496

Region: air Courant Number mean: 1.983784 max: 2
Region: fuel Courant Number mean: 0.001993243 max: 0.118

Map from cell 

Map air from Cell

Map fuel from Cell

Map electrolyte from Cell

Map interconnect from Cell

Map phiEA from Cell 

Map phiEC from Cell 

Map phiI from Cell 

Nernst air: min = -0.7877814, mean = -0.7754289, max = -0.6237462
Total current (A) at ccl: 0.6399343

Correct diffusivity for specie: O2

Nernst fuel: min = -1.840968, mean = -1.693613, max = -1.649978
Total current (A) at acl: 0.6401871

Correct diffusivity for specie: H2

ibar: 7999.179	voltage: 0.7462784

Solve for single phase flow:

Reading hRef
Calculating field g.h

Creating field dpdt

PIMPLE: iteration 1
DILUPBiCGStab:  Solving for O2, Initial residual = 0.0004500098, Final residual = 5.449215e-10, No Iterations 22
Y: O2:0.156949 -> 0.2300632
Constructing momentum equations
DICPCG:  Solving for p_rgh, Initial residual = 6.043688e-06, Final residual = 6.041179e-09, No Iterations 212
DICPCG:  Solving for p_rgh, Initial residual = 2.479664e-06, Final residual = 1.464524e-09, No Iterations 211
DICPCG:  Solving for p_rgh, Initial residual = 1.401567e-06, Final residual = 8.157341e-11, No Iterations 217

Solve for single phase flow:

Reading hRef
Calculating field g.h

Creating field dpdt

PIMPLE: iteration 1
DILUPBiCGStab:  Solving for H2, Initial residual = 6.881889e-06, Final residual = 3.13204e-13, No Iterations 143
Y: H2:0.08621208 -> 0.8121604
Constructing momentum equations
DICPCG:  Solving for p_rgh, Initial residual = 1.717458e-06, Final residual = 1.175956e-09, No Iterations 197
DICPCG:  Solving for p_rgh, Initial residual = 6.368374e-07, Final residual = 6.325036e-10, No Iterations 191
DICPCG:  Solving for p_rgh, Initial residual = 3.999216e-07, Final residual = 6.407772e-11, No Iterations 199

Solve for region phiEA:

GAMGPCG:  Solving for phi, Initial residual = 1.818751e-07, Final residual = 5.968805e-11, No Iterations 4

Solve for region phiEC:

GAMGPCG:  Solving for phi, Initial residual = 0.001972604, Final residual = 9.882178e-11, No Iterations 5

Solve for region phiI:

GAMG:  Solving for phi, Initial residual = 0.0001779529, Final residual = 1.411045e-14, No Iterations 1

Map to cell 

Map air to Cell

Map fuel to Cell

Map electrolyte to Cell

Map interconnect to Cell

Map phiEA to Cell 

Map phiEC to Cell 

Map phiI to Cell 

Solving for temperature:

GAMGPBiCGStab:  Solving for T, Initial residual = 0.0006813904, Final residual = 9.047866e-11, No Iterations 8
T: min = 1026.206, mean = 1241.683, max = 1253.811
ExecutionTime = 1854.4 s



Time = 1.497

Region: air Courant Number mean: 1.983784 max: 2
Region: fuel Courant Number mean: 0.001993243 max: 0.118

Map from cell 

Map air from Cell

Map fuel from Cell

Map electrolyte from Cell

Map interconnect from Cell

Map phiEA from Cell 

Map phiEC from Cell 

Map phiI from Cell 

Nernst air: min = -0.7877937, mean = -0.7754413, max = -0.6237721
Total current (A) at ccl: 0.6399291

Correct diffusivity for specie: O2

Nernst fuel: min = -1.840978, mean = -1.693621, max = -1.649984
Total current (A) at acl: 0.6401869

Correct diffusivity for specie: H2

ibar: 7999.114	voltage: 0.7462702

Solve for single phase flow:

Reading hRef
Calculating field g.h

Creating field dpdt

PIMPLE: iteration 1
DILUPBiCGStab:  Solving for O2, Initial residual = 0.0005596323, Final residual = 1.519053e-10, No Iterations 24
Y: O2:0.1569475 -> 0.2296691
Constructing momentum equations
DICPCG:  Solving for p_rgh, Initial residual = 4.964299e-06, Final residual = 4.577714e-09, No Iterations 210
DICPCG:  Solving for p_rgh, Initial residual = 2.155859e-06, Final residual = 1.177454e-09, No Iterations 211
DICPCG:  Solving for p_rgh, Initial residual = 1.222349e-06, Final residual = 9.455062e-11, No Iterations 217

Solve for single phase flow:

Reading hRef
Calculating field g.h

Creating field dpdt

PIMPLE: iteration 1
DILUPBiCGStab:  Solving for H2, Initial residual = 6.880155e-06, Final residual = 5.069675e-12, No Iterations 138
Y: H2:0.0862116 -> 0.8121631
Constructing momentum equations
DICPCG:  Solving for p_rgh, Initial residual = 1.691669e-06, Final residual = 1.344747e-09, No Iterations 197
DICPCG:  Solving for p_rgh, Initial residual = 6.47492e-07, Final residual = 6.387291e-10, No Iterations 191
DICPCG:  Solving for p_rgh, Initial residual = 4.061751e-07, Final residual = 6.321168e-11, No Iterations 199

Solve for region phiEA:

GAMGPCG:  Solving for phi, Initial residual = 1.808018e-07, Final residual = 5.925757e-11, No Iterations 4

Solve for region phiEC:

GAMGPCG:  Solving for phi, Initial residual = 0.002126584, Final residual = 4.575349e-12, No Iterations 6

Solve for region phiI:

GAMG:  Solving for phi, Initial residual = 0.0001813889, Final residual = 1.378347e-14, No Iterations 1

Map to cell 

Map air to Cell

Map fuel to Cell

Map electrolyte to Cell

Map interconnect to Cell

Map phiEA to Cell 

Map phiEC to Cell 

Map phiI to Cell 

Solving for temperature:

GAMGPBiCGStab:  Solving for T, Initial residual = 0.0006790877, Final residual = 4.375038e-11, No Iterations 8
T: min = 1026.215, mean = 1241.701, max = 1253.828
ExecutionTime = 1855.48 s



Time = 1.498

Region: air Courant Number mean: 1.983784 max: 2
Region: fuel Courant Number mean: 0.001993243 max: 0.118

Map from cell 

Map air from Cell

Map fuel from Cell

Map electrolyte from Cell

Map interconnect from Cell

Map phiEA from Cell 

Map phiEC from Cell 

Map phiI from Cell 

Nernst air: min = -0.7878052, mean = -0.7754534, max = -0.6237576
Total current (A) at ccl: 0.6399346

Correct diffusivity for specie: O2

Nernst fuel: min = -1.840988, mean = -1.693628, max = -1.64999
Total current (A) at acl: 0.6401863

Correct diffusivity for specie: H2

ibar: 7999.183	voltage: 0.7462614

Solve for single phase flow:

Reading hRef
Calculating field g.h

Creating field dpdt

PIMPLE: iteration 1
DILUPBiCGStab:  Solving for O2, Initial residual = 0.0004499635, Final residual = 5.453156e-10, No Iterations 22
Y: O2:0.1569509 -> 0.2300632
Constructing momentum equations
DICPCG:  Solving for p_rgh, Initial residual = 6.025717e-06, Final residual = 3.979484e-09, No Iterations 213
DICPCG:  Solving for p_rgh, Initial residual = 2.474322e-06, Final residual = 1.445768e-09, No Iterations 211
DICPCG:  Solving for p_rgh, Initial residual = 1.395007e-06, Final residual = 8.027913e-11, No Iterations 216

Solve for single phase flow:

Reading hRef
Calculating field g.h

Creating field dpdt

PIMPLE: iteration 1
DILUPBiCGStab:  Solving for H2, Initial residual = 6.858069e-06, Final residual = 9.064941e-12, No Iterations 132
Y: H2:0.08621112 -> 0.8121658
Constructing momentum equations
DICPCG:  Solving for p_rgh, Initial residual = 1.710304e-06, Final residual = 1.170719e-09, No Iterations 197
DICPCG:  Solving for p_rgh, Initial residual = 6.341594e-07, Final residual = 6.310705e-10, No Iterations 191
DICPCG:  Solving for p_rgh, Initial residual = 3.982528e-07, Final residual = 6.364704e-11, No Iterations 199

Solve for region phiEA:

GAMGPCG:  Solving for phi, Initial residual = 1.813279e-07, Final residual = 5.948793e-11, No Iterations 4

Solve for region phiEC:

GAMGPCG:  Solving for phi, Initial residual = 0.001963026, Final residual = 9.837097e-11, No Iterations 5

Solve for region phiI:

GAMG:  Solving for phi, Initial residual = 0.0001771077, Final residual = 1.393514e-14, No Iterations 1

Map to cell 

Map air to Cell

Map fuel to Cell

Map electrolyte to Cell

Map interconnect to Cell

Map phiEA to Cell 

Map phiEC to Cell 

Map phiI to Cell 

Solving for temperature:

GAMGPBiCGStab:  Solving for T, Initial residual = 0.0006782479, Final residual = 9.036316e-11, No Iterations 8
T: min = 1026.223, mean = 1241.718, max = 1253.846
ExecutionTime = 1856.58 s



Time = 1.499

Region: air Courant Number mean: 1.983784 max: 2
Region: fuel Courant Number mean: 0.001993243 max: 0.118

Map from cell 

Map air from Cell

Map fuel from Cell

Map electrolyte from Cell

Map interconnect from Cell

Map phiEA from Cell 

Map phiEC from Cell 

Map phiI from Cell 

Nernst air: min = -0.7878175, mean = -0.7754657, max = -0.6237835
Total current (A) at ccl: 0.6399295

Correct diffusivity for specie: O2

Nernst fuel: min = -1.840998, mean = -1.693636, max = -1.649996
Total current (A) at acl: 0.6401861

Correct diffusivity for specie: H2

ibar: 7999.118	voltage: 0.7462532

Solve for single phase flow:

Reading hRef
Calculating field g.h

Creating field dpdt

PIMPLE: iteration 1
DILUPBiCGStab:  Solving for O2, Initial residual = 0.0005595919, Final residual = 1.531842e-10, No Iterations 24
Y: O2:0.1569494 -> 0.229669
Constructing momentum equations
DICPCG:  Solving for p_rgh, Initial residual = 4.961562e-06, Final residual = 3.672218e-09, No Iterations 211
DICPCG:  Solving for p_rgh, Initial residual = 2.154857e-06, Final residual = 1.17051e-09, No Iterations 211
DICPCG:  Solving for p_rgh, Initial residual = 1.223023e-06, Final residual = 9.603128e-11, No Iterations 217

Solve for single phase flow:

Reading hRef
Calculating field g.h

Creating field dpdt

PIMPLE: iteration 1
DILUPBiCGStab:  Solving for H2, Initial residual = 6.856307e-06, Final residual = 2.492453e-12, No Iterations 138
Y: H2:0.08621065 -> 0.8121686
Constructing momentum equations
DICPCG:  Solving for p_rgh, Initial residual = 1.684554e-06, Final residual = 1.339629e-09, No Iterations 197
DICPCG:  Solving for p_rgh, Initial residual = 6.448446e-07, Final residual = 6.377383e-10, No Iterations 191
DICPCG:  Solving for p_rgh, Initial residual = 4.045259e-07, Final residual = 6.302137e-11, No Iterations 199

Solve for region phiEA:

GAMGPCG:  Solving for phi, Initial residual = 1.802519e-07, Final residual = 5.905703e-11, No Iterations 4

Solve for region phiEC:

GAMGPCG:  Solving for phi, Initial residual = 0.002117039, Final residual = 4.555836e-12, No Iterations 6

Solve for region phiI:

GAMG:  Solving for phi, Initial residual = 0.0001805451, Final residual = 1.371461e-14, No Iterations 1

Map to cell 

Map air to Cell

Map fuel to Cell

Map electrolyte to Cell

Map interconnect to Cell

Map phiEA to Cell 

Map phiEC to Cell 

Map phiI to Cell 

Solving for temperature:

GAMGPBiCGStab:  Solving for T, Initial residual = 0.000675953, Final residual = 4.416106e-11, No Iterations 8
T: min = 1026.232, mean = 1241.736, max = 1253.863
ExecutionTime = 1857.7 s



Time = 1.5

Region: air Courant Number mean: 1.983784 max: 2
Region: fuel Courant Number mean: 0.001993243 max: 0.118

Map from cell 

Map air from Cell

Map fuel from Cell

Map electrolyte from Cell

Map interconnect from Cell

Map phiEA from Cell 

Map phiEC from Cell 

Map phiI from Cell 

Nernst air: min = -0.7878289, mean = -0.7754777, max = -0.623769
Total current (A) at ccl: 0.6399349

Correct diffusivity for specie: O2

Nernst fuel: min = -1.841008, mean = -1.693643, max = -1.650001
Total current (A) at acl: 0.6401855

Correct diffusivity for specie: H2

ibar: 7999.186	voltage: 0.7462444

Solve for single phase flow:

Reading hRef
Calculating field g.h

Creating field dpdt

PIMPLE: iteration 1
DILUPBiCGStab:  Solving for O2, Initial residual = 0.0004499172, Final residual = 5.457806e-10, No Iterations 22
Y: O2:0.1569527 -> 0.2300632
Constructing momentum equations
DICPCG:  Solving for p_rgh, Initial residual = 5.99663e-06, Final residual = 5.985658e-09, No Iterations 212
DICPCG:  Solving for p_rgh, Initial residual = 2.452131e-06, Final residual = 1.442427e-09, No Iterations 211
DICPCG:  Solving for p_rgh, Initial residual = 1.390318e-06, Final residual = 8.370398e-11, No Iterations 217

Solve for single phase flow:

Reading hRef
Calculating field g.h

Creating field dpdt

PIMPLE: iteration 1
DILUPBiCGStab:  Solving for H2, Initial residual = 6.834372e-06, Final residual = 6.875638e-12, No Iterations 136
Y: H2:0.08621017 -> 0.8121713
Constructing momentum equations
DICPCG:  Solving for p_rgh, Initial residual = 1.703182e-06, Final residual = 1.165437e-09, No Iterations 197
DICPCG:  Solving for p_rgh, Initial residual = 6.315274e-07, Final residual = 6.251142e-10, No Iterations 191
DICPCG:  Solving for p_rgh, Initial residual = 3.965805e-07, Final residual = 6.360145e-11, No Iterations 199

Solve for region phiEA:

GAMGPCG:  Solving for phi, Initial residual = 1.807821e-07, Final residual = 5.928825e-11, No Iterations 4

Solve for region phiEC:

GAMGPCG:  Solving for phi, Initial residual = 0.001953495, Final residual = 9.792244e-11, No Iterations 5

Solve for region phiI:

GAMG:  Solving for phi, Initial residual = 0.0001762669, Final residual = 1.379095e-14, No Iterations 1

Map to cell 

Map air to Cell

Map fuel to Cell

Map electrolyte to Cell

Map interconnect to Cell

Map phiEA to Cell 

Map phiEC to Cell 

Map phiI to Cell 

Solving for temperature:

GAMGPBiCGStab:  Solving for T, Initial residual = 0.0006751207, Final residual = 9.024463e-11, No Iterations 8
T: min = 1026.24, mean = 1241.753, max = 1253.88
ExecutionTime = 1859.48 s


End

