/*---------------------------------------------------------------------------*\
| =========                 |                                                 |
| \\      /  F ield         | OpenFOAM: The Open Source CFD Toolbox           |
|  \\    /   O peration     | Version:  2306                                  |
|   \\  /    A nd           | Website:  www.openfoam.com                      |
|    \\/     M anipulation  |                                                 |
\*---------------------------------------------------------------------------*/
Build  : _fbf00d6bf2-20230626 OPENFOAM=2306 version=v2306
Arch   : "LSB;label=32;scalar=64"
Exec   : openFuelCell
Date   : Nov 14 2024
Time   : 23:54:48
Host   : LAPTOP-5B06C84A
PID    : 4486
I/O    : uncollated
Case   : /home/catalina/OpenFOAM/openFuelCell2/run/SOFC
nProcs : 1
trapFpe: Floating point exception trapping enabled (FOAM_SIGFPE).
fileModificationChecking : Monitoring run-time modified files using timeStampMaster (fileModificationSkew 5, maxFileModificationPolls 20)
allowSystemOperations : Allowing user-supplied system call operations

// * * * * * * * * * * * * * * * * * * * * * * * * * * * * * * * * * * * * * //
Create time

Create mesh for time = 0

Creating fuel cell system


Reading g
Get cell properties from cellProperties


Creating regions: 
Creating air
Selecting regionType: fluid
Get region properties from regionProperties

Selecting phaseSystemType for region air: singlePhaseSystem
Creating phaseSystem from regionProperties

Creating porous model list from porousZones

Porosity region cathode:
    selecting model: DarcyForchheimer
    creating porous zone: cathode
Porosity region mpl:
    selecting model: DarcyForchheimer
    creating porous zone: mpl
Porosity region ccl:
    selecting model: DarcyForchheimer
    creating porous zone: ccl
Selecting phaseModel for air: reactingPhaseModel
Selecting thermodynamics package 
{
    type            heRhoThermo;
    mixture         multiComponentMixture;
    transport       sutherland;
    thermo          janaf;
    equationOfState perfectGas;
    specie          specie;
    energy          sensibleInternalEnergy;
}

Calculating face flux field phi
Selecting turbulence model type laminar
Selecting laminar stress model Stokes
Selecting combustion model electroChemicalReaction
Selecting saturationModel: ArdenBuck
Selecting activationOverpotentialModel: ButlerVolmer<heRhoThermo<multiComponentMixture<sutherland<janaf<perfectGas<specie>>,sensibleInternalEnergy>>>>
Selecting diffusivity model binaryFSG
Selecting diffusivity model porousFSG
Selecting diffusivity model porousFSG
Selecting diffusivity model porousFSG
No MRF models present


PIMPLE: Operating solver in PISO mode

Creating fuel
Selecting regionType: fluid
Get region properties from regionProperties

Selecting phaseSystemType for region fuel: singlePhaseSystem
Creating phaseSystem from regionProperties

Creating porous model list from porousZones

Porosity region anode:
    selecting model: DarcyForchheimer
    creating porous zone: anode
Porosity region mpl:
    selecting model: DarcyForchheimer
    creating porous zone: mpl
Porosity region acl:
    selecting model: DarcyForchheimer
    creating porous zone: acl
Selecting phaseModel for fuel: reactingPhaseModel
Selecting thermodynamics package 
{
    type            heRhoThermo;
    mixture         multiComponentMixture;
    transport       sutherland;
    thermo          janaf;
    equationOfState perfectGas;
    specie          specie;
    energy          sensibleInternalEnergy;
}

Calculating face flux field phi
Selecting turbulence model type laminar
Selecting laminar stress model Stokes
Selecting combustion model electroChemicalReaction
Selecting saturationModel: ArdenBuck
Selecting activationOverpotentialModel: ButlerVolmer<heRhoThermo<multiComponentMixture<sutherland<janaf<perfectGas<specie>>,sensibleInternalEnergy>>>>
Selecting diffusivity model binaryFSG
Selecting diffusivity model porousFSG
Selecting diffusivity model porousFSG
Selecting diffusivity model porousFSG
No MRF models present


PIMPLE: Operating solver in PISO mode

Creating electrolyte
Selecting regionType: solid
Get region properties from regionProperties

Selecting thermodynamics package 
{
    type            heSolidThermo;
    mixture         pureMixture;
    transport       constIso;
    thermo          hConst;
    equationOfState rhoConst;
    specie          specie;
    energy          sensibleEnthalpy;
}

Radiation model not active: radiationProperties not found
Selecting radiationModel none
Creating interconnect
Selecting regionType: solid
Get region properties from regionProperties

Selecting thermodynamics package 
{
    type            heSolidThermo;
    mixture         pureMixture;
    transport       constIso;
    thermo          hConst;
    equationOfState rhoConst;
    specie          specie;
    energy          sensibleEnthalpy;
}

Radiation model not active: radiationProperties not found
Selecting radiationModel none
Creating phiEA
Selecting regionType: electric
Get region properties from regionProperties

Selecting sigmaModel: constantSigma
Selecting sigmaModel: porousSigma
Selecting sigmaModel: porousSigma
Selecting sigmaModel: porousSigma
Creating phiEC
Selecting regionType: electric
Get region properties from regionProperties

Selecting sigmaModel: constantSigma
Selecting sigmaModel: porousSigma
Selecting sigmaModel: porousSigma
Selecting sigmaModel: porousSigma
Creating phiI
Selecting regionType: electric
Get region properties from regionProperties

Selecting dissolved water transfer Type: none
Selecting sigmaModel: constantSigma
Selecting sigmaModel: constantSigma
Selecting sigmaModel: constantSigma
Region: air Courant Number mean: 1.983784 max: 2
Region: fuel Courant Number mean: 0.001993243 max: 0.118

Starting time loop


Map to cell 

Map air to Cell

Map fuel to Cell

Map electrolyte to Cell

Map interconnect to Cell

Map phiEA to Cell 

Map phiEC to Cell 

Map phiI to Cell 


Time = 0.001

Region: air Courant Number mean: 1.983784 max: 2
Region: fuel Courant Number mean: 0.001993243 max: 0.118

Map from cell 

Map air from Cell

Map fuel from Cell

Map electrolyte from Cell

Map interconnect from Cell

Map phiEA from Cell 

Map phiEC from Cell 

Map phiI from Cell 

Selecting nernstModel for air: standard<heRhoThermo<multiComponentMixture<sutherland<janaf<perfectGas<specie>>,sensibleInternalEnergy>>>,heRhoThermo<multiComponentMixture<sutherland<janaf<perfectGas<specie>>,sensibleInternalEnergy>>>>
Nernst air: min = -0.5226461, mean = -0.5226461, max = -0.5226461
Total current (A) at ccl: 5.209513

Correct diffusivity for specie: O2

diffusivityModels::binaryFSG:
    diffusing speciesA molWt diffVol: O2 31.9988 16.3
   background speciesB molWt diffVol: N2 28.0134 18.5
diffusivityModels::porousFSG:
    diffusing speciesA molWt diffVol:  O2 31.9988 16.3
    background speciesB molWt diffVol: N2 28.0134 18.5
    dPore      = dPore [0 1 0 0 0 0 0] 1.65e-05
    porosity   = 0.7
    tortuosity = 1.15
diffusivityModels::porousFSG:
    diffusing speciesA molWt diffVol:  O2 31.9988 16.3
    background speciesB molWt diffVol: N2 28.0134 18.5
    dPore      = dPore [0 1 0 0 0 0 0] 4.6e-05
    porosity   = 0.4
    tortuosity = 1.6
diffusivityModels::porousFSG:
    diffusing speciesA molWt diffVol:  O2 31.9988 16.3
    background speciesB molWt diffVol: N2 28.0134 18.5
    dPore      = dPore [0 1 0 0 0 0 0] 3.6e-05
    porosity   = 0.3
    tortuosity = 1.83
Selecting nernstModel for fuel: standard<heRhoThermo<multiComponentMixture<sutherland<janaf<perfectGas<specie>>,sensibleInternalEnergy>>>,heRhoThermo<multiComponentMixture<sutherland<janaf<perfectGas<specie>>,sensibleInternalEnergy>>>>
Nernst fuel: min = -1.692031, mean = -1.692031, max = -1.692031
Total current (A) at acl: 2.770525

Correct diffusivity for specie: H2

diffusivityModels::binaryFSG:
    diffusing speciesA molWt diffVol: H2 2.01594 6.12
   background speciesB molWt diffVol: H2O 18.01534 13.1
diffusivityModels::porousFSG:
    diffusing speciesA molWt diffVol:  H2 2.01594 6.12
    background speciesB molWt diffVol: H2O 18.01534 13.1
    dPore      = dPore [0 1 0 0 0 0 0] 1.333333e-06
    porosity   = 0.7
    tortuosity = 1.15
diffusivityModels::porousFSG:
    diffusing speciesA molWt diffVol:  H2 2.01594 6.12
    background speciesB molWt diffVol: H2O 18.01534 13.1
    dPore      = dPore [0 1 0 0 0 0 0] 1.333333e-06
    porosity   = 0.4
    tortuosity = 1.6
diffusivityModels::porousFSG:
    diffusing speciesA molWt diffVol:  H2 2.01594 6.12
    background speciesB molWt diffVol: H2O 18.01534 13.1
    dPore      = dPore [0 1 0 0 0 0 0] 1.333333e-06
    porosity   = 0.3
    tortuosity = 1.8
ibar: 65118.92	voltage: 0.7

Solve for single phase flow:

Reading hRef
Calculating field g.h

Creating field dpdt

PIMPLE: iteration 1
DILUPBiCGStab:  Solving for O2, Initial residual = 1, Final residual = 5.989433e-10, No Iterations 56
Y: O2:0.1642074 -> 0.21294
Constructing momentum equations
DICPCG:  Solving for p_rgh, Initial residual = 1, Final residual = 0.0009057542, No Iterations 215
DICPCG:  Solving for p_rgh, Initial residual = 0.01813092, Final residual = 1.69359e-05, No Iterations 208
DICPCG:  Solving for p_rgh, Initial residual = 0.0106688, Final residual = 8.410306e-11, No Iterations 240

Solve for single phase flow:

Reading hRef
Calculating field g.h

Creating field dpdt

PIMPLE: iteration 1
DILUPBiCGStab:  Solving for H2, Initial residual = 1, Final residual = 5.576152e-12, No Iterations 157
Y: H2:0.7285159 -> 0.8678879
Constructing momentum equations
DICPCG:  Solving for p_rgh, Initial residual = 1, Final residual = 0.0005550041, No Iterations 206
DICPCG:  Solving for p_rgh, Initial residual = 0.07962254, Final residual = 7.183118e-05, No Iterations 203
DICPCG:  Solving for p_rgh, Initial residual = 0.05121095, Final residual = 8.690114e-11, No Iterations 238

Solve for region phiEA:

GAMGPCG:  Solving for phi, Initial residual = 1, Final residual = 2.615997e-11, No Iterations 11

Solve for region phiEC:

GAMGPCG:  Solving for phi, Initial residual = 1, Final residual = 6.306519e-12, No Iterations 8

Solve for region phiI:

GAMG:  Solving for phi, Initial residual = 1, Final residual = 6.297296e-15, No Iterations 2

Map to cell 

Map air to Cell

Map fuel to Cell

Map electrolyte to Cell

Map interconnect to Cell

Map phiEA to Cell 

Map phiEC to Cell 

Map phiI to Cell 

Solving for temperature:

GAMGPBiCGStab:  Solving for T, Initial residual = 1, Final residual = 3.269645e-11, No Iterations 13
T: min = 877.3184, mean = 887.1318, max = 893.4733
ExecutionTime = 2.18 s



Time = 0.002

Region: air Courant Number mean: 1.983784 max: 2
Region: fuel Courant Number mean: 0.001993243 max: 0.118

Map from cell 

Map air from Cell

Map fuel from Cell

Map electrolyte from Cell

Map interconnect from Cell

Map phiEA from Cell 

Map phiEC from Cell 

Map phiI from Cell 

Nernst air: min = -0.5253583, mean = -0.5227843, max = -0.5206412
Total current (A) at ccl: 0

Correct diffusivity for specie: O2

Nernst fuel: min = -1.692031, mean = -1.692031, max = -1.692031
Total current (A) at acl: 7.15661

Correct diffusivity for specie: H2

ibar: 0	voltage: 1.271189

Solve for single phase flow:

Reading hRef
Calculating field g.h

Creating field dpdt

PIMPLE: iteration 1
DILUPBiCGStab:  Solving for O2, Initial residual = 0.7017962, Final residual = 3.807279e-10, No Iterations 56
Y: O2:0.1749376 -> 0.2337918
Constructing momentum equations
DICPCG:  Solving for p_rgh, Initial residual = 0.04408934, Final residual = 3.019729e-05, No Iterations 208
DICPCG:  Solving for p_rgh, Initial residual = 0.02426805, Final residual = 1.822664e-05, No Iterations 207
DICPCG:  Solving for p_rgh, Initial residual = 0.01016121, Final residual = 8.408956e-11, No Iterations 239

Solve for single phase flow:

Reading hRef
Calculating field g.h

Creating field dpdt

PIMPLE: iteration 1
DILUPBiCGStab:  Solving for H2, Initial residual = 0.7948355, Final residual = 5.340828e-12, No Iterations 74
Y: H2:0.2883699 -> 0.7804556
Constructing momentum equations
DICPCG:  Solving for p_rgh, Initial residual = 0.06131104, Final residual = 4.188663e-05, No Iterations 205
DICPCG:  Solving for p_rgh, Initial residual = 0.01766056, Final residual = 1.137198e-05, No Iterations 205
DICPCG:  Solving for p_rgh, Initial residual = 0.01158186, Final residual = 7.004233e-11, No Iterations 235

Solve for region phiEA:

GAMGPCG:  Solving for phi, Initial residual = 0.01506069, Final residual = 2.034358e-11, No Iterations 9

Solve for region phiEC:

GAMGPCG:  Solving for phi, Initial residual = 0.7084369, Final residual = 8.412983e-12, No Iterations 8

Solve for region phiI:

GAMG:  Solving for phi, Initial residual = 0.992826, Final residual = 1.74518e-15, No Iterations 2

Map to cell 

Map air to Cell

Map fuel to Cell

Map electrolyte to Cell

Map interconnect to Cell

Map phiEA to Cell 

Map phiEC to Cell 

Map phiI to Cell 

Solving for temperature:

GAMGPBiCGStab:  Solving for T, Initial residual = 0.6664872, Final residual = 3.500352e-11, No Iterations 12
T: min = 876.3518, mean = 882.6543, max = 884.5517
ExecutionTime = 3.34 s



Time = 0.003

Region: air Courant Number mean: 1.983784 max: 2
Region: fuel Courant Number mean: 0.001993243 max: 0.118

Map from cell 

Map air from Cell

Map fuel from Cell

Map electrolyte from Cell

Map interconnect from Cell

Map phiEA from Cell 

Map phiEC from Cell 

Map phiI from Cell 

Nernst air: min = -0.5415653, mean = -0.537706, max = -0.5269744
Total current (A) at ccl: 0

Correct diffusivity for specie: O2

Nernst fuel: min = -1.693456, mean = -1.689344, max = -1.685946
Total current (A) at acl: 2.311917

Correct diffusivity for specie: H2

ibar: 0	voltage: 1.191189

Solve for single phase flow:

Reading hRef
Calculating field g.h

Creating field dpdt

PIMPLE: iteration 1
DILUPBiCGStab:  Solving for O2, Initial residual = 0.4024156, Final residual = 7.203468e-10, No Iterations 30
Y: O2:0.1769646 -> 0.2298323
Constructing momentum equations
DICPCG:  Solving for p_rgh, Initial residual = 0.05317391, Final residual = 4.16336e-05, No Iterations 206
DICPCG:  Solving for p_rgh, Initial residual = 0.01584616, Final residual = 1.573619e-05, No Iterations 205
DICPCG:  Solving for p_rgh, Initial residual = 0.0106304, Final residual = 7.464406e-11, No Iterations 238

Solve for single phase flow:

Reading hRef
Calculating field g.h

Creating field dpdt

PIMPLE: iteration 1
DILUPBiCGStab:  Solving for H2, Initial residual = 0.1193551, Final residual = 9.301026e-12, No Iterations 56
Y: H2:0.1467033 -> 0.7217024
Constructing momentum equations
DICPCG:  Solving for p_rgh, Initial residual = 0.04234005, Final residual = 3.071894e-05, No Iterations 202
DICPCG:  Solving for p_rgh, Initial residual = 0.02643229, Final residual = 2.001109e-05, No Iterations 202
DICPCG:  Solving for p_rgh, Initial residual = 0.01312598, Final residual = 7.140728e-11, No Iterations 233

Solve for region phiEA:

GAMGPCG:  Solving for phi, Initial residual = 0.006628718, Final residual = 1.125874e-11, No Iterations 9

Solve for region phiEC:

GAMGPCG:  Solving for phi, Initial residual = 1, Final residual = 6.6036e-12, No Iterations 8

Solve for region phiI:

GAMG:  Solving for phi, Initial residual = 0.9616963, Final residual = 5.209033e-15, No Iterations 2

Map to cell 

Map air to Cell

Map fuel to Cell

Map electrolyte to Cell

Map interconnect to Cell

Map phiEA to Cell 

Map phiEC to Cell 

Map phiI to Cell 

Solving for temperature:

GAMGPBiCGStab:  Solving for T, Initial residual = 0.4813995, Final residual = 4.232813e-11, No Iterations 13
T: min = 875.4702, mean = 880.3135, max = 881.9494
ExecutionTime = 4.42 s



Time = 0.004

Region: air Courant Number mean: 1.983784 max: 2
Region: fuel Courant Number mean: 0.001993243 max: 0.118

Map from cell 

Map air from Cell

Map fuel from Cell

Map electrolyte from Cell

Map interconnect from Cell

Map phiEA from Cell 

Map phiEC from Cell 

Map phiI from Cell 

Nernst air: min = -0.5341113, mean = -0.5330881, max = -0.5244228
Total current (A) at ccl: 0

Correct diffusivity for specie: O2

Nernst fuel: min = -1.685593, mean = -1.659513, max = -1.652128
Total current (A) at acl: 0.6772602

Correct diffusivity for specie: H2

ibar: 0	voltage: 1.111189

Solve for single phase flow:

Reading hRef
Calculating field g.h

Creating field dpdt

PIMPLE: iteration 1
DILUPBiCGStab:  Solving for O2, Initial residual = 0.1521454, Final residual = 8.208884e-10, No Iterations 29
Y: O2:0.1781694 -> 0.229995
Constructing momentum equations
DICPCG:  Solving for p_rgh, Initial residual = 0.03150009, Final residual = 2.090126e-05, No Iterations 206
DICPCG:  Solving for p_rgh, Initial residual = 0.01149624, Final residual = 1.054901e-05, No Iterations 205
DICPCG:  Solving for p_rgh, Initial residual = 0.008082634, Final residual = 8.582872e-11, No Iterations 238

Solve for single phase flow:

Reading hRef
Calculating field g.h

Creating field dpdt

PIMPLE: iteration 1
DILUPBiCGStab:  Solving for H2, Initial residual = 0.305271, Final residual = 5.655605e-12, No Iterations 85
Y: H2:0.1887574 -> 0.6987891
Constructing momentum equations
DICPCG:  Solving for p_rgh, Initial residual = 0.09244509, Final residual = 8.034998e-05, No Iterations 197
DICPCG:  Solving for p_rgh, Initial residual = 0.01756435, Final residual = 1.21249e-05, No Iterations 201
DICPCG:  Solving for p_rgh, Initial residual = 0.01212243, Final residual = 5.918227e-11, No Iterations 232

Solve for region phiEA:

GAMGPCG:  Solving for phi, Initial residual = 0.006954456, Final residual = 9.992036e-12, No Iterations 9

Solve for region phiEC:

GAMGPCG:  Solving for phi, Initial residual = 1, Final residual = 6.6036e-12, No Iterations 8

Solve for region phiI:

GAMG:  Solving for phi, Initial residual = 0.8672867, Final residual = 1.608126e-14, No Iterations 2

Map to cell 

Map air to Cell

Map fuel to Cell

Map electrolyte to Cell

Map interconnect to Cell

Map phiEA to Cell 

Map phiEC to Cell 

Map phiI to Cell 

Solving for temperature:

GAMGPBiCGStab:  Solving for T, Initial residual = 0.5777682, Final residual = 3.431566e-11, No Iterations 12
T: min = 875.2692, mean = 879.5925, max = 880.9903
ExecutionTime = 5.59 s



Time = 0.005

Region: air Courant Number mean: 1.983784 max: 2
Region: fuel Courant Number mean: 0.001993243 max: 0.118

Map from cell 

Map air from Cell

Map fuel from Cell

Map electrolyte from Cell

Map interconnect from Cell

Map phiEA from Cell 

Map phiEC from Cell 

Map phiI from Cell 

Nernst air: min = -0.5329398, mean = -0.5314893, max = -0.5241183
Total current (A) at ccl: 0.2986975

Correct diffusivity for specie: O2

Nernst fuel: min = -1.659298, mean = -1.610475, max = -1.556849
Total current (A) at acl: 0.00123431

Correct diffusivity for specie: H2

ibar: 3733.718	voltage: 1.031189

Solve for single phase flow:

Reading hRef
Calculating field g.h

Creating field dpdt

PIMPLE: iteration 1
DILUPBiCGStab:  Solving for O2, Initial residual = 0.1658782, Final residual = 3.981046e-10, No Iterations 31
Y: O2:0.1757541 -> 0.2299749
Constructing momentum equations
DICPCG:  Solving for p_rgh, Initial residual = 0.01912641, Final residual = 1.695993e-05, No Iterations 206
DICPCG:  Solving for p_rgh, Initial residual = 0.01302911, Final residual = 1.073551e-05, No Iterations 202
DICPCG:  Solving for p_rgh, Initial residual = 0.009299014, Final residual = 9.716656e-11, No Iterations 238

Solve for single phase flow:

Reading hRef
Calculating field g.h

Creating field dpdt

PIMPLE: iteration 1
DILUPBiCGStab:  Solving for H2, Initial residual = 0.4332238, Final residual = 9.445775e-12, No Iterations 119
Y: H2:0.226809 -> 0.7644727
Constructing momentum equations
DICPCG:  Solving for p_rgh, Initial residual = 0.03479981, Final residual = 2.577898e-05, No Iterations 200
DICPCG:  Solving for p_rgh, Initial residual = 0.01223239, Final residual = 8.69941e-06, No Iterations 201
DICPCG:  Solving for p_rgh, Initial residual = 0.009265495, Final residual = 8.689328e-11, No Iterations 232

Solve for region phiEA:

GAMGPCG:  Solving for phi, Initial residual = 0.009686456, Final residual = 1.62715e-11, No Iterations 9

Solve for region phiEC:

GAMGPCG:  Solving for phi, Initial residual = 1, Final residual = 6.624311e-12, No Iterations 8

Solve for region phiI:

GAMG:  Solving for phi, Initial residual = 0.7297947, Final residual = 3.084319e-14, No Iterations 2

Map to cell 

Map air to Cell

Map fuel to Cell

Map electrolyte to Cell

Map interconnect to Cell

Map phiEA to Cell 

Map phiEC to Cell 

Map phiI to Cell 

Solving for temperature:

GAMGPBiCGStab:  Solving for T, Initial residual = 0.75627, Final residual = 2.285849e-11, No Iterations 14
T: min = 875.5802, mean = 880.4851, max = 880.8258
ExecutionTime = 6.9 s



Time = 0.006

Region: air Courant Number mean: 1.983784 max: 2
Region: fuel Courant Number mean: 0.001993243 max: 0.118

Map from cell 

Map air from Cell

Map fuel from Cell

Map electrolyte from Cell

Map interconnect from Cell

Map phiEA from Cell 

Map phiEC from Cell 

Map phiI from Cell 

Nernst air: min = -0.5322089, mean = -0.5309585, max = -0.5239863
Total current (A) at ccl: 1.541138

Correct diffusivity for specie: O2

Nernst fuel: min = -1.64792, mean = -1.5969, max = -1.554925
Total current (A) at acl: 0

Correct diffusivity for specie: H2

ibar: 19264.22	voltage: 0.9885263

Solve for single phase flow:

Reading hRef
Calculating field g.h

Creating field dpdt

PIMPLE: iteration 1
DILUPBiCGStab:  Solving for O2, Initial residual = 0.2721561, Final residual = 7.951026e-10, No Iterations 31
Y: O2:0.1564703 -> 0.2302046
Constructing momentum equations
DICPCG:  Solving for p_rgh, Initial residual = 0.02946888, Final residual = 1.738173e-05, No Iterations 207
DICPCG:  Solving for p_rgh, Initial residual = 0.0615491, Final residual = 4.941183e-05, No Iterations 203
DICPCG:  Solving for p_rgh, Initial residual = 0.03214773, Final residual = 7.831176e-11, No Iterations 240

Solve for single phase flow:

Reading hRef
Calculating field g.h

Creating field dpdt

PIMPLE: iteration 1
DILUPBiCGStab:  Solving for H2, Initial residual = 0.387705, Final residual = 3.230132e-12, No Iterations 137
Y: H2:0.2701445 -> 0.8248215
Constructing momentum equations
DICPCG:  Solving for p_rgh, Initial residual = 0.03232504, Final residual = 2.605368e-05, No Iterations 199
DICPCG:  Solving for p_rgh, Initial residual = 0.01160079, Final residual = 1.054137e-05, No Iterations 201
DICPCG:  Solving for p_rgh, Initial residual = 0.009531378, Final residual = 9.942656e-11, No Iterations 232

Solve for region phiEA:

GAMGPCG:  Solving for phi, Initial residual = 0.007999907, Final residual = 3.026317e-11, No Iterations 9

Solve for region phiEC:

GAMGPCG:  Solving for phi, Initial residual = 0.9996689, Final residual = 6.135431e-12, No Iterations 8

Solve for region phiI:

GAMG:  Solving for phi, Initial residual = 0.9345727, Final residual = 7.549185e-15, No Iterations 2

Map to cell 

Map air to Cell

Map fuel to Cell

Map electrolyte to Cell

Map interconnect to Cell

Map phiEA to Cell 

Map phiEC to Cell 

Map phiI to Cell 

Solving for temperature:

GAMGPBiCGStab:  Solving for T, Initial residual = 0.7332566, Final residual = 6.573958e-11, No Iterations 14
T: min = 877.1843, mean = 885.1452, max = 888.1477
ExecutionTime = 8.03 s



Time = 0.007

Region: air Courant Number mean: 1.983784 max: 2
Region: fuel Courant Number mean: 0.001993243 max: 0.118

Map from cell 

Map air from Cell

Map fuel from Cell

Map electrolyte from Cell

Map interconnect from Cell

Map phiEA from Cell 

Map phiEC from Cell 

Map phiI from Cell 

Nernst air: min = -0.5328474, mean = -0.5317084, max = -0.5242159
Total current (A) at ccl: 0.4804822

Correct diffusivity for specie: O2

Nernst fuel: min = -1.646231, mean = -1.600635, max = -1.56323
Total current (A) at acl: 0

Correct diffusivity for specie: H2

ibar: 6006.027	voltage: 1.101169

Solve for single phase flow:

Reading hRef
Calculating field g.h

Creating field dpdt

PIMPLE: iteration 1
DILUPBiCGStab:  Solving for O2, Initial residual = 0.2339692, Final residual = 4.455043e-10, No Iterations 37
Y: O2:0.1584197 -> 0.2299484
Constructing momentum equations
DICPCG:  Solving for p_rgh, Initial residual = 0.1214045, Final residual = 7.348451e-05, No Iterations 207
DICPCG:  Solving for p_rgh, Initial residual = 0.009746871, Final residual = 6.241055e-06, No Iterations 196
DICPCG:  Solving for p_rgh, Initial residual = 0.005390058, Final residual = 9.581536e-11, No Iterations 237

Solve for single phase flow:

Reading hRef
Calculating field g.h

Creating field dpdt

PIMPLE: iteration 1
DILUPBiCGStab:  Solving for H2, Initial residual = 0.1264242, Final residual = 6.419594e-12, No Iterations 154
Y: H2:0.3048909 -> 0.8565352
Constructing momentum equations
DICPCG:  Solving for p_rgh, Initial residual = 0.05362531, Final residual = 4.283356e-05, No Iterations 199
DICPCG:  Solving for p_rgh, Initial residual = 0.0133666, Final residual = 1.238518e-05, No Iterations 201
DICPCG:  Solving for p_rgh, Initial residual = 0.01106552, Final residual = 7.227031e-11, No Iterations 232

Solve for region phiEA:

GAMGPCG:  Solving for phi, Initial residual = 0.1478026, Final residual = 9.79615e-11, No Iterations 11

Solve for region phiEC:

GAMGPCG:  Solving for phi, Initial residual = 0.6699621, Final residual = 9.272234e-11, No Iterations 7

Solve for region phiI:

GAMG:  Solving for phi, Initial residual = 0.8123471, Final residual = 2.120152e-14, No Iterations 2

Map to cell 

Map air to Cell

Map fuel to Cell

Map electrolyte to Cell

Map interconnect to Cell

Map phiEA to Cell 

Map phiEC to Cell 

Map phiI to Cell 

Solving for temperature:

GAMGPBiCGStab:  Solving for T, Initial residual = 0.5925506, Final residual = 9.630907e-12, No Iterations 13
T: min = 877.5612, mean = 886.1516, max = 887.7635
ExecutionTime = 9.2 s



Time = 0.008

Region: air Courant Number mean: 1.983784 max: 2
Region: fuel Courant Number mean: 0.001993243 max: 0.118

Map from cell 

Map air from Cell

Map fuel from Cell

Map electrolyte from Cell

Map interconnect from Cell

Map phiEA from Cell 

Map phiEC from Cell 

Map phiI from Cell 

Nernst air: min = -0.5382953, mean = -0.5358509, max = -0.5252165
Total current (A) at ccl: 0.1290715

Correct diffusivity for specie: O2

Nernst fuel: min = -1.662832, mean = -1.605198, max = -1.572669
Total current (A) at acl: 0.002188639

Correct diffusivity for specie: H2

ibar: 1613.394	voltage: 1.081229

Solve for single phase flow:

Reading hRef
Calculating field g.h

Creating field dpdt

PIMPLE: iteration 1
DILUPBiCGStab:  Solving for O2, Initial residual = 0.1013823, Final residual = 7.811303e-10, No Iterations 32
Y: O2:0.1622264 -> 0.2301373
Constructing momentum equations
DICPCG:  Solving for p_rgh, Initial residual = 0.02668353, Final residual = 1.737948e-05, No Iterations 199
DICPCG:  Solving for p_rgh, Initial residual = 0.005998963, Final residual = 5.429408e-06, No Iterations 204
DICPCG:  Solving for p_rgh, Initial residual = 0.00410013, Final residual = 8.108275e-11, No Iterations 236

Solve for single phase flow:

Reading hRef
Calculating field g.h

Creating field dpdt

PIMPLE: iteration 1
DILUPBiCGStab:  Solving for H2, Initial residual = 0.09992875, Final residual = 8.119384e-12, No Iterations 158
Y: H2:0.3354612 -> 0.8718597
Constructing momentum equations
DICPCG:  Solving for p_rgh, Initial residual = 0.04736982, Final residual = 2.869809e-05, No Iterations 201
DICPCG:  Solving for p_rgh, Initial residual = 0.01499816, Final residual = 1.309991e-05, No Iterations 201
DICPCG:  Solving for p_rgh, Initial residual = 0.01246751, Final residual = 8.787556e-11, No Iterations 232

Solve for region phiEA:

GAMGPCG:  Solving for phi, Initial residual = 1, Final residual = 2.195032e-11, No Iterations 12

Solve for region phiEC:

GAMGPCG:  Solving for phi, Initial residual = 0.9545466, Final residual = 9.916257e-11, No Iterations 7

Solve for region phiI:

GAMG:  Solving for phi, Initial residual = 0.489857, Final residual = 4.769164e-14, No Iterations 2

Map to cell 

Map air to Cell

Map fuel to Cell

Map electrolyte to Cell

Map interconnect to Cell

Map phiEA to Cell 

Map phiEC to Cell 

Map phiI to Cell 

Solving for temperature:

GAMGPBiCGStab:  Solving for T, Initial residual = 0.5111085, Final residual = 6.302521e-11, No Iterations 13
T: min = 877.5785, mean = 886.2919, max = 886.9493
ExecutionTime = 10.51 s



Time = 0.009

Region: air Courant Number mean: 1.983784 max: 2
Region: fuel Courant Number mean: 0.001993243 max: 0.118

Map from cell 

Map air from Cell

Map fuel from Cell

Map electrolyte from Cell

Map interconnect from Cell

Map phiEA from Cell 

Map phiEC from Cell 

Map phiI from Cell 

Nernst air: min = -0.5385206, mean = -0.5361817, max = -0.5254918
Total current (A) at ccl: 0.5104461

Correct diffusivity for specie: O2

Nernst fuel: min = -1.67735, mean = -1.609493, max = -1.580028
Total current (A) at acl: 0.02803017

Correct diffusivity for specie: H2

ibar: 6380.576	voltage: 1.017363

Solve for single phase flow:

Reading hRef
Calculating field g.h

Creating field dpdt

PIMPLE: iteration 1
DILUPBiCGStab:  Solving for O2, Initial residual = 0.09816302, Final residual = 8.592548e-10, No Iterations 29
Y: O2:0.1586024 -> 0.2299277
Constructing momentum equations
DICPCG:  Solving for p_rgh, Initial residual = 0.01164931, Final residual = 9.179314e-06, No Iterations 204
DICPCG:  Solving for p_rgh, Initial residual = 0.008184969, Final residual = 7.131281e-06, No Iterations 206
DICPCG:  Solving for p_rgh, Initial residual = 0.005639475, Final residual = 7.285662e-11, No Iterations 239

Solve for single phase flow:

Reading hRef
Calculating field g.h

Creating field dpdt

PIMPLE: iteration 1
DILUPBiCGStab:  Solving for H2, Initial residual = 0.09934109, Final residual = 7.453777e-12, No Iterations 160
Y: H2:0.3611266 -> 0.8769535
Constructing momentum equations
DICPCG:  Solving for p_rgh, Initial residual = 0.04932788, Final residual = 4.452439e-05, No Iterations 201
DICPCG:  Solving for p_rgh, Initial residual = 0.0288221, Final residual = 2.759429e-05, No Iterations 201
DICPCG:  Solving for p_rgh, Initial residual = 0.02584824, Final residual = 8.331398e-11, No Iterations 234

Solve for region phiEA:

GAMGPCG:  Solving for phi, Initial residual = 0.08346443, Final residual = 6.178941e-11, No Iterations 10

Solve for region phiEC:

GAMGPCG:  Solving for phi, Initial residual = 0.951966, Final residual = 7.425348e-12, No Iterations 8

Solve for region phiI:

GAMG:  Solving for phi, Initial residual = 0.8149076, Final residual = 2.083734e-14, No Iterations 2

Map to cell 

Map air to Cell

Map fuel to Cell

Map electrolyte to Cell

Map interconnect to Cell

Map phiEA to Cell 

Map phiEC to Cell 

Map phiI to Cell 

Solving for temperature:

GAMGPBiCGStab:  Solving for T, Initial residual = 0.4973533, Final residual = 4.870279e-11, No Iterations 13
T: min = 877.9428, mean = 887.5831, max = 888.6957
ExecutionTime = 11.72 s



Time = 0.01

Region: air Courant Number mean: 1.983784 max: 2
Region: fuel Courant Number mean: 0.001993243 max: 0.118

Map from cell 

Map air from Cell

Map fuel from Cell

Map electrolyte from Cell

Map interconnect from Cell

Map phiEA from Cell 

Map phiEC from Cell 

Map phiI from Cell 

Nernst air: min = -0.538114, mean = -0.5359345, max = -0.525491
Total current (A) at ccl: 0.7764806

Correct diffusivity for specie: O2

Nernst fuel: min = -1.68537, mean = -1.612228, max = -1.58575
Total current (A) at acl: 0.1262884

Correct diffusivity for specie: H2

ibar: 9706.007	voltage: 1.001169

Solve for single phase flow:

Reading hRef
Calculating field g.h

Creating field dpdt

PIMPLE: iteration 1
DILUPBiCGStab:  Solving for O2, Initial residual = 0.06931266, Final residual = 6.972925e-10, No Iterations 29
Y: O2:0.1524861 -> 0.2300993
Constructing momentum equations
DICPCG:  Solving for p_rgh, Initial residual = 0.02434639, Final residual = 1.921531e-05, No Iterations 203
DICPCG:  Solving for p_rgh, Initial residual = 0.008396266, Final residual = 8.225232e-06, No Iterations 203
DICPCG:  Solving for p_rgh, Initial residual = 0.005480334, Final residual = 9.387748e-11, No Iterations 238

Solve for single phase flow:

Reading hRef
Calculating field g.h

Creating field dpdt

PIMPLE: iteration 1
DILUPBiCGStab:  Solving for H2, Initial residual = 0.1268209, Final residual = 9.613581e-12, No Iterations 156
Y: H2:0.384333 -> 0.8669281
Constructing momentum equations
DICPCG:  Solving for p_rgh, Initial residual = 0.1342062, Final residual = 8.511075e-05, No Iterations 201
DICPCG:  Solving for p_rgh, Initial residual = 0.01780772, Final residual = 1.452711e-05, No Iterations 199
DICPCG:  Solving for p_rgh, Initial residual = 0.01128948, Final residual = 7.353195e-11, No Iterations 231

Solve for region phiEA:

GAMGPCG:  Solving for phi, Initial residual = 0.02972348, Final residual = 1.963263e-11, No Iterations 10

Solve for region phiEC:

GAMGPCG:  Solving for phi, Initial residual = 0.9962775, Final residual = 9.671138e-11, No Iterations 7

Solve for region phiI:

GAMG:  Solving for phi, Initial residual = 0.8554432, Final residual = 1.630821e-14, No Iterations 2

Map to cell 

Map air to Cell

Map fuel to Cell

Map electrolyte to Cell

Map interconnect to Cell

Map phiEA to Cell 

Map phiEC to Cell 

Map phiI to Cell 

Solving for temperature:

GAMGPBiCGStab:  Solving for T, Initial residual = 0.3716372, Final residual = 5.237437e-11, No Iterations 12
T: min = 878.5699, mean = 889.5309, max = 891.3667
ExecutionTime = 12.88 s



Time = 0.011

Region: air Courant Number mean: 1.983784 max: 2
Region: fuel Courant Number mean: 0.001993243 max: 0.118

Map from cell 

Map air from Cell

Map fuel from Cell

Map electrolyte from Cell

Map interconnect from Cell

Map phiEA from Cell 

Map phiEC from Cell 

Map phiI from Cell 

Nernst air: min = -0.539476, mean = -0.537001, max = -0.5257709
Total current (A) at ccl: 0.5762582

Correct diffusivity for specie: O2

Nernst fuel: min = -1.689612, mean = -1.615235, max = -1.590928
Total current (A) at acl: 0.2851509

Correct diffusivity for specie: H2

ibar: 7203.228	voltage: 1.018229

Solve for single phase flow:

Reading hRef
Calculating field g.h

Creating field dpdt

PIMPLE: iteration 1
DILUPBiCGStab:  Solving for O2, Initial residual = 0.05587418, Final residual = 9.30309e-10, No Iterations 27
Y: O2:0.1503923 -> 0.229925
Constructing momentum equations
DICPCG:  Solving for p_rgh, Initial residual = 0.01844185, Final residual = 1.431403e-05, No Iterations 207
DICPCG:  Solving for p_rgh, Initial residual = 0.004158804, Final residual = 3.982056e-06, No Iterations 203
DICPCG:  Solving for p_rgh, Initial residual = 0.002504497, Final residual = 6.866058e-11, No Iterations 236

Solve for single phase flow:

Reading hRef
Calculating field g.h

Creating field dpdt

PIMPLE: iteration 1
DILUPBiCGStab:  Solving for H2, Initial residual = 0.1904383, Final residual = 8.861292e-12, No Iterations 164
Y: H2:0.4051568 -> 0.844913
Constructing momentum equations
DICPCG:  Solving for p_rgh, Initial residual = 0.04880847, Final residual = 4.135129e-05, No Iterations 198
DICPCG:  Solving for p_rgh, Initial residual = 0.00978883, Final residual = 7.959854e-06, No Iterations 193
DICPCG:  Solving for p_rgh, Initial residual = 0.006279395, Final residual = 9.063136e-11, No Iterations 228

Solve for region phiEA:

GAMGPCG:  Solving for phi, Initial residual = 0.01169904, Final residual = 4.693421e-11, No Iterations 9

Solve for region phiEC:

GAMGPCG:  Solving for phi, Initial residual = 0.6143016, Final residual = 5.416594e-11, No Iterations 7

Solve for region phiI:

GAMG:  Solving for phi, Initial residual = 0.7220119, Final residual = 3.014958e-14, No Iterations 2

Map to cell 

Map air to Cell

Map fuel to Cell

Map electrolyte to Cell

Map interconnect to Cell

Map phiEA to Cell 

Map phiEC to Cell 

Map phiI to Cell 

Solving for temperature:

GAMGPBiCGStab:  Solving for T, Initial residual = 0.3158121, Final residual = 4.113288e-11, No Iterations 13
T: min = 878.9104, mean = 890.606, max = 892.3744
ExecutionTime = 13.97 s



Time = 0.012

Region: air Courant Number mean: 1.983784 max: 2
Region: fuel Courant Number mean: 0.001993243 max: 0.118

Map from cell 

Map air from Cell

Map fuel from Cell

Map electrolyte from Cell

Map interconnect from Cell

Map phiEA from Cell 

Map phiEC from Cell 

Map phiI from Cell 

Nernst air: min = -0.5414666, mean = -0.5386298, max = -0.5261607
Total current (A) at ccl: 0.4818217

Correct diffusivity for specie: O2

Nernst fuel: min = -1.690037, mean = -1.618063, max = -1.595766
Total current (A) at acl: 0.4444105

Correct diffusivity for specie: H2

ibar: 6022.771	voltage: 1.010261

Solve for single phase flow:

Reading hRef
Calculating field g.h

Creating field dpdt

PIMPLE: iteration 1
DILUPBiCGStab:  Solving for O2, Initial residual = 0.03373377, Final residual = 8.081612e-10, No Iterations 25
Y: O2:0.149325 -> 0.2300841
Constructing momentum equations
DICPCG:  Solving for p_rgh, Initial residual = 0.01014913, Final residual = 7.752092e-06, No Iterations 205
DICPCG:  Solving for p_rgh, Initial residual = 0.002840206, Final residual = 2.128038e-06, No Iterations 206
DICPCG:  Solving for p_rgh, Initial residual = 0.001901485, Final residual = 7.706073e-11, No Iterations 235

Solve for single phase flow:

Reading hRef
Calculating field g.h

Creating field dpdt

PIMPLE: iteration 1
DILUPBiCGStab:  Solving for H2, Initial residual = 0.2216986, Final residual = 1.642267e-12, No Iterations 178
Y: H2:0.3739858 -> 0.8196892
Constructing momentum equations
DICPCG:  Solving for p_rgh, Initial residual = 0.02902544, Final residual = 2.648915e-05, No Iterations 197
DICPCG:  Solving for p_rgh, Initial residual = 0.006709592, Final residual = 4.980897e-06, No Iterations 198
DICPCG:  Solving for p_rgh, Initial residual = 0.004381423, Final residual = 9.245689e-11, No Iterations 227

Solve for region phiEA:

GAMGPCG:  Solving for phi, Initial residual = 0.005325218, Final residual = 2.841268e-11, No Iterations 9

Solve for region phiEC:

GAMGPCG:  Solving for phi, Initial residual = 0.8417851, Final residual = 8.76997e-11, No Iterations 7

Solve for region phiI:

GAMG:  Solving for phi, Initial residual = 0.1592935, Final residual = 5.253129e-14, No Iterations 2

Map to cell 

Map air to Cell

Map fuel to Cell

Map electrolyte to Cell

Map interconnect to Cell

Map phiEA to Cell 

Map phiEC to Cell 

Map phiI to Cell 

Solving for temperature:

GAMGPBiCGStab:  Solving for T, Initial residual = 0.2349534, Final residual = 8.432963e-11, No Iterations 12
T: min = 879.0776, mean = 891.2212, max = 892.9753
ExecutionTime = 15.13 s



Time = 0.013

Region: air Courant Number mean: 1.983784 max: 2
Region: fuel Courant Number mean: 0.001993243 max: 0.118

Map from cell 

Map air from Cell

Map fuel from Cell

Map electrolyte from Cell

Map interconnect from Cell

Map phiEA from Cell 

Map phiEC from Cell 

Map phiI from Cell 

Nernst air: min = -0.5422352, mean = -0.5393177, max = -0.5263933
Total current (A) at ccl: 0.6073595

Correct diffusivity for specie: O2

Nernst fuel: min = -1.685974, mean = -1.619242, max = -1.599919
Total current (A) at acl: 0.5398515

Correct diffusivity for specie: H2

ibar: 7591.993	voltage: 0.9904886

Solve for single phase flow:

Reading hRef
Calculating field g.h

Creating field dpdt

PIMPLE: iteration 1
DILUPBiCGStab:  Solving for O2, Initial residual = 0.03374962, Final residual = 2.937258e-10, No Iterations 26
Y: O2:0.1464229 -> 0.2299008
Constructing momentum equations
DICPCG:  Solving for p_rgh, Initial residual = 0.005541057, Final residual = 4.945755e-06, No Iterations 205
DICPCG:  Solving for p_rgh, Initial residual = 0.003071717, Final residual = 1.980418e-06, No Iterations 205
DICPCG:  Solving for p_rgh, Initial residual = 0.002005319, Final residual = 8.188802e-11, No Iterations 235

Solve for single phase flow:

Reading hRef
Calculating field g.h

Creating field dpdt

PIMPLE: iteration 1
DILUPBiCGStab:  Solving for H2, Initial residual = 0.1801819, Final residual = 8.556398e-12, No Iterations 161
Y: H2:0.3254769 -> 0.8019783
Constructing momentum equations
DICPCG:  Solving for p_rgh, Initial residual = 0.02076601, Final residual = 1.836337e-05, No Iterations 199
DICPCG:  Solving for p_rgh, Initial residual = 0.006060622, Final residual = 4.927898e-06, No Iterations 198
DICPCG:  Solving for p_rgh, Initial residual = 0.003928538, Final residual = 8.683976e-11, No Iterations 227

Solve for region phiEA:

GAMGPCG:  Solving for phi, Initial residual = 0.002356164, Final residual = 7.173493e-11, No Iterations 8

Solve for region phiEC:

GAMGPCG:  Solving for phi, Initial residual = 0.5671399, Final residual = 8.987168e-11, No Iterations 7

Solve for region phiI:

GAMG:  Solving for phi, Initial residual = 0.2721023, Final residual = 5.070766e-14, No Iterations 2

Map to cell 

Map air to Cell

Map fuel to Cell

Map electrolyte to Cell

Map interconnect to Cell

Map phiEA to Cell 

Map phiEC to Cell 

Map phiI to Cell 

Solving for temperature:

GAMGPBiCGStab:  Solving for T, Initial residual = 0.1978493, Final residual = 4.654442e-11, No Iterations 12
T: min = 879.3641, mean = 892.1236, max = 893.9582
ExecutionTime = 16.26 s



Time = 0.014

Region: air Courant Number mean: 1.983784 max: 2
Region: fuel Courant Number mean: 0.001993243 max: 0.118

Map from cell 

Map air from Cell

Map fuel from Cell

Map electrolyte from Cell

Map interconnect from Cell

Map phiEA from Cell 

Map phiEC from Cell 

Map phiI from Cell 

Nernst air: min = -0.5426504, mean = -0.5396431, max = -0.5264932
Total current (A) at ccl: 0.690358

Correct diffusivity for specie: O2

Nernst fuel: min = -1.679755, mean = -1.617368, max = -1.603025
Total current (A) at acl: 0.5621994

Correct diffusivity for specie: H2

ibar: 8629.475	voltage: 0.9864085

Solve for single phase flow:

Reading hRef
Calculating field g.h

Creating field dpdt

PIMPLE: iteration 1
DILUPBiCGStab:  Solving for O2, Initial residual = 0.02919045, Final residual = 9.670081e-10, No Iterations 25
Y: O2:0.143204 -> 0.2300766
Constructing momentum equations
DICPCG:  Solving for p_rgh, Initial residual = 0.007410332, Final residual = 5.411258e-06, No Iterations 205
DICPCG:  Solving for p_rgh, Initial residual = 0.002507939, Final residual = 2.090667e-06, No Iterations 205
DICPCG:  Solving for p_rgh, Initial residual = 0.001652694, Final residual = 6.861321e-11, No Iterations 235

Solve for single phase flow:

Reading hRef
Calculating field g.h

Creating field dpdt

PIMPLE: iteration 1
DILUPBiCGStab:  Solving for H2, Initial residual = 0.130331, Final residual = 5.187682e-12, No Iterations 156
Y: H2:0.2881553 -> 0.7947938
Constructing momentum equations
DICPCG:  Solving for p_rgh, Initial residual = 0.02282077, Final residual = 2.165858e-05, No Iterations 197
DICPCG:  Solving for p_rgh, Initial residual = 0.007713071, Final residual = 7.443903e-06, No Iterations 197
DICPCG:  Solving for p_rgh, Initial residual = 0.005150759, Final residual = 9.510646e-11, No Iterations 227

Solve for region phiEA:

GAMGPCG:  Solving for phi, Initial residual = 0.001778787, Final residual = 4.511979e-11, No Iterations 8

Solve for region phiEC:

GAMGPCG:  Solving for phi, Initial residual = 0.9880926, Final residual = 9.787589e-11, No Iterations 7

Solve for region phiI:

GAMG:  Solving for phi, Initial residual = 0.4600532, Final residual = 4.462445e-14, No Iterations 2

Map to cell 

Map air to Cell

Map fuel to Cell

Map electrolyte to Cell

Map interconnect to Cell

Map phiEA to Cell 

Map phiEC to Cell 

Map phiI to Cell 

Solving for temperature:

GAMGPBiCGStab:  Solving for T, Initial residual = 0.1847023, Final residual = 2.601221e-11, No Iterations 12
T: min = 879.7606, mean = 893.251, max = 895.0424
ExecutionTime = 17.4 s



Time = 0.015

Region: air Courant Number mean: 1.983784 max: 2
Region: fuel Courant Number mean: 0.001993243 max: 0.118

Map from cell 

Map air from Cell

Map fuel from Cell

Map electrolyte from Cell

Map interconnect from Cell

Map phiEA from Cell 

Map phiEC from Cell 

Map phiI from Cell 

Nernst air: min = -0.5436325, mean = -0.5403215, max = -0.5267055
Total current (A) at ccl: 0.6314461

Correct diffusivity for specie: O2

Nernst fuel: min = -1.67416, mean = -1.612999, max = -1.595743
Total current (A) at acl: 0.5484521

Correct diffusivity for specie: H2

ibar: 7893.076	voltage: 0.9927033

Solve for single phase flow:

Reading hRef
Calculating field g.h

Creating field dpdt

PIMPLE: iteration 1
DILUPBiCGStab:  Solving for O2, Initial residual = 0.02496997, Final residual = 2.567347e-10, No Iterations 25
Y: O2:0.141544 -> 0.2299024
Constructing momentum equations
DICPCG:  Solving for p_rgh, Initial residual = 0.005112001, Final residual = 4.030035e-06, No Iterations 208
DICPCG:  Solving for p_rgh, Initial residual = 0.001712383, Final residual = 1.5789e-06, No Iterations 205
DICPCG:  Solving for p_rgh, Initial residual = 0.001075938, Final residual = 9.791459e-11, No Iterations 233

Solve for single phase flow:

Reading hRef
Calculating field g.h

Creating field dpdt

PIMPLE: iteration 1
DILUPBiCGStab:  Solving for H2, Initial residual = 0.1080182, Final residual = 5.845289e-12, No Iterations 156
Y: H2:0.2718668 -> 0.795537
Constructing momentum equations
DICPCG:  Solving for p_rgh, Initial residual = 0.02580194, Final residual = 1.626868e-05, No Iterations 197
DICPCG:  Solving for p_rgh, Initial residual = 0.009561113, Final residual = 9.016133e-06, No Iterations 196
DICPCG:  Solving for p_rgh, Initial residual = 0.006295414, Final residual = 9.857002e-11, No Iterations 227

Solve for region phiEA:

GAMGPCG:  Solving for phi, Initial residual = 0.001497872, Final residual = 5.03321e-11, No Iterations 8

Solve for region phiEC:

GAMGPCG:  Solving for phi, Initial residual = 0.1934045, Final residual = 2.77483e-11, No Iterations 7

Solve for region phiI:

GAMG:  Solving for phi, Initial residual = 0.308327, Final residual = 4.58082e-14, No Iterations 2

Map to cell 

Map air to Cell

Map fuel to Cell

Map electrolyte to Cell

Map interconnect to Cell

Map phiEA to Cell 

Map phiEC to Cell 

Map phiI to Cell 

Solving for temperature:

GAMGPBiCGStab:  Solving for T, Initial residual = 0.1697532, Final residual = 4.505151e-11, No Iterations 12
T: min = 880.0984, mean = 894.1751, max = 895.6637
ExecutionTime = 18.53 s



Time = 0.016

Region: air Courant Number mean: 1.983784 max: 2
Region: fuel Courant Number mean: 0.001993243 max: 0.118

Map from cell 

Map air from Cell

Map fuel from Cell

Map electrolyte from Cell

Map interconnect from Cell

Map phiEA from Cell 

Map phiEC from Cell 

Map phiI from Cell 

Nernst air: min = -0.5449023, mean = -0.5411732, max = -0.5269524
Total current (A) at ccl: 0.5865069

Correct diffusivity for specie: O2

Nernst fuel: min = -1.670972, mean = -1.607462, max = -1.587339
Total current (A) at acl: 0.5010366

Correct diffusivity for specie: H2

ibar: 7331.336	voltage: 0.991634

Solve for single phase flow:

Reading hRef
Calculating field g.h

Creating field dpdt

PIMPLE: iteration 1
DILUPBiCGStab:  Solving for O2, Initial residual = 0.02026976, Final residual = 9.582377e-10, No Iterations 22
Y: O2:0.1407352 -> 0.230089
Constructing momentum equations
DICPCG:  Solving for p_rgh, Initial residual = 0.003963925, Final residual = 3.769052e-06, No Iterations 205
DICPCG:  Solving for p_rgh, Initial residual = 0.001338074, Final residual = 1.208232e-06, No Iterations 206
DICPCG:  Solving for p_rgh, Initial residual = 0.0008966513, Final residual = 6.936814e-11, No Iterations 234

Solve for single phase flow:

Reading hRef
Calculating field g.h

Creating field dpdt

PIMPLE: iteration 1
DILUPBiCGStab:  Solving for H2, Initial residual = 0.1056049, Final residual = 1.814208e-12, No Iterations 161
Y: H2:0.2651145 -> 0.7999232
Constructing momentum equations
DICPCG:  Solving for p_rgh, Initial residual = 0.0282011, Final residual = 2.639695e-05, No Iterations 196
DICPCG:  Solving for p_rgh, Initial residual = 0.01526426, Final residual = 1.363149e-05, No Iterations 196
DICPCG:  Solving for p_rgh, Initial residual = 0.009608267, Final residual = 9.393094e-11, No Iterations 228

Solve for region phiEA:

GAMGPCG:  Solving for phi, Initial residual = 0.001187908, Final residual = 5.333923e-11, No Iterations 8

Solve for region phiEC:

GAMGPCG:  Solving for phi, Initial residual = 0.6204051, Final residual = 6.405618e-11, No Iterations 7

Solve for region phiI:

GAMG:  Solving for phi, Initial residual = 0.3086079, Final residual = 4.506501e-14, No Iterations 2

Map to cell 

Map air to Cell

Map fuel to Cell

Map electrolyte to Cell

Map interconnect to Cell

Map phiEA to Cell 

Map phiEC to Cell 

Map phiI to Cell 

Solving for temperature:

GAMGPBiCGStab:  Solving for T, Initial residual = 0.1600989, Final residual = 6.206457e-11, No Iterations 12
T: min = 880.3881, mean = 895.0369, max = 896.2392
ExecutionTime = 19.72 s



Time = 0.017

Region: air Courant Number mean: 1.983784 max: 2
Region: fuel Courant Number mean: 0.001993243 max: 0.118

Map from cell 

Map air from Cell

Map fuel from Cell

Map electrolyte from Cell

Map interconnect from Cell

Map phiEA from Cell 

Map phiEC from Cell 

Map phiI from Cell 

Nernst air: min = -0.5458877, mean = -0.5417605, max = -0.527182
Total current (A) at ccl: 0.6056185

Correct diffusivity for specie: O2

Nernst fuel: min = -1.670147, mean = -1.601478, max = -1.582192
Total current (A) at acl: 0.4406958

Correct diffusivity for specie: H2

ibar: 7570.231	voltage: 0.9849474

Solve for single phase flow:

Reading hRef
Calculating field g.h

Creating field dpdt

PIMPLE: iteration 1
DILUPBiCGStab:  Solving for O2, Initial residual = 0.01761551, Final residual = 9.489844e-10, No Iterations 22
Y: O2:0.1399508 -> 0.229889
Constructing momentum equations
DICPCG:  Solving for p_rgh, Initial residual = 0.002694042, Final residual = 2.416913e-06, No Iterations 204
DICPCG:  Solving for p_rgh, Initial residual = 0.0009856352, Final residual = 8.741146e-07, No Iterations 205
DICPCG:  Solving for p_rgh, Initial residual = 0.000661421, Final residual = 7.072141e-11, No Iterations 234

Solve for single phase flow:

Reading hRef
Calculating field g.h

Creating field dpdt

PIMPLE: iteration 1
DILUPBiCGStab:  Solving for H2, Initial residual = 0.09558801, Final residual = 9.852113e-12, No Iterations 160
Y: H2:0.2591447 -> 0.8050663
Constructing momentum equations
DICPCG:  Solving for p_rgh, Initial residual = 0.04503423, Final residual = 3.044192e-05, No Iterations 192
DICPCG:  Solving for p_rgh, Initial residual = 0.02791804, Final residual = 2.738291e-05, No Iterations 193
DICPCG:  Solving for p_rgh, Initial residual = 0.02232994, Final residual = 7.773373e-11, No Iterations 231

Solve for region phiEA:

GAMGPCG:  Solving for phi, Initial residual = 0.001162137, Final residual = 4.414147e-11, No Iterations 8

Solve for region phiEC:

GAMGPCG:  Solving for phi, Initial residual = 0.530219, Final residual = 5.665553e-11, No Iterations 7

Solve for region phiI:

GAMG:  Solving for phi, Initial residual = 0.5211215, Final residual = 3.926009e-14, No Iterations 2

Map to cell 

Map air to Cell

Map fuel to Cell

Map electrolyte to Cell

Map interconnect to Cell

Map phiEA to Cell 

Map phiEC to Cell 

Map phiI to Cell 

Solving for temperature:

GAMGPBiCGStab:  Solving for T, Initial residual = 0.1661859, Final residual = 4.349801e-11, No Iterations 13
T: min = 880.7088, mean = 896.04, max = 897.1823
ExecutionTime = 20.93 s



Time = 0.018

Region: air Courant Number mean: 1.983784 max: 2
Region: fuel Courant Number mean: 0.001993243 max: 0.118

Map from cell 

Map air from Cell

Map fuel from Cell

Map electrolyte from Cell

Map interconnect from Cell

Map phiEA from Cell 

Map phiEC from Cell 

Map phiI from Cell 

Nernst air: min = -0.546747, mean = -0.5422767, max = -0.5273609
Total current (A) at ccl: 0.6179212

Correct diffusivity for specie: O2

Nernst fuel: min = -1.670937, mean = -1.596045, max = -1.580261
Total current (A) at acl: 0.3985546

Correct diffusivity for specie: H2

ibar: 7724.015	voltage: 0.9806497

Solve for single phase flow:

Reading hRef
Calculating field g.h

Creating field dpdt

PIMPLE: iteration 1
DILUPBiCGStab:  Solving for O2, Initial residual = 0.01638389, Final residual = 5.049767e-10, No Iterations 24
Y: O2:0.1393698 -> 0.230091
Constructing momentum equations
DICPCG:  Solving for p_rgh, Initial residual = 0.002080593, Final residual = 2.016192e-06, No Iterations 205
DICPCG:  Solving for p_rgh, Initial residual = 0.0008166495, Final residual = 5.696823e-07, No Iterations 205
DICPCG:  Solving for p_rgh, Initial residual = 0.0005480978, Final residual = 7.170326e-11, No Iterations 229

Solve for single phase flow:

Reading hRef
Calculating field g.h

Creating field dpdt

PIMPLE: iteration 1
DILUPBiCGStab:  Solving for H2, Initial residual = 0.07603359, Final residual = 8.495681e-12, No Iterations 156
Y: H2:0.2466649 -> 0.808779
Constructing momentum equations
DICPCG:  Solving for p_rgh, Initial residual = 0.08740672, Final residual = 7.866699e-05, No Iterations 192
DICPCG:  Solving for p_rgh, Initial residual = 0.02680275, Final residual = 2.466041e-05, No Iterations 193
DICPCG:  Solving for p_rgh, Initial residual = 0.01896823, Final residual = 6.596187e-11, No Iterations 231

Solve for region phiEA:

GAMGPCG:  Solving for phi, Initial residual = 0.001026843, Final residual = 3.392341e-11, No Iterations 8

Solve for region phiEC:

GAMGPCG:  Solving for phi, Initial residual = 0.4122347, Final residual = 4.405138e-11, No Iterations 7

Solve for region phiI:

GAMG:  Solving for phi, Initial residual = 0.6080393, Final residual = 3.429263e-14, No Iterations 2

Map to cell 

Map air to Cell

Map fuel to Cell

Map electrolyte to Cell

Map interconnect to Cell

Map phiEA to Cell 

Map phiEC to Cell 

Map phiI to Cell 

Solving for temperature:

GAMGPBiCGStab:  Solving for T, Initial residual = 0.1765261, Final residual = 6.103786e-11, No Iterations 12
T: min = 881.0486, mean = 897.1221, max = 898.3774
ExecutionTime = 22.1 s



Time = 0.019

Region: air Courant Number mean: 1.983784 max: 2
Region: fuel Courant Number mean: 0.001993243 max: 0.118

Map from cell 

Map air from Cell

Map fuel from Cell

Map electrolyte from Cell

Map interconnect from Cell

Map phiEA from Cell 

Map phiEC from Cell 

Map phiI from Cell 

Nernst air: min = -0.5476687, mean = -0.5429182, max = -0.5275876
Total current (A) at ccl: 0.5992837

Correct diffusivity for specie: O2

Nernst fuel: min = -1.672505, mean = -1.591782, max = -1.579454
Total current (A) at acl: 0.3859052

Correct diffusivity for specie: H2

ibar: 7491.046	voltage: 0.9778899

Solve for single phase flow:

Reading hRef
Calculating field g.h

Creating field dpdt

PIMPLE: iteration 1
DILUPBiCGStab:  Solving for O2, Initial residual = 0.01604737, Final residual = 9.259543e-10, No Iterations 22
Y: O2:0.1392275 -> 0.2298892
Constructing momentum equations
DICPCG:  Solving for p_rgh, Initial residual = 0.001613459, Final residual = 1.439059e-06, No Iterations 207
DICPCG:  Solving for p_rgh, Initial residual = 0.0007641689, Final residual = 6.647086e-07, No Iterations 205
DICPCG:  Solving for p_rgh, Initial residual = 0.0004952161, Final residual = 9.26145e-11, No Iterations 231

Solve for single phase flow:

Reading hRef
Calculating field g.h

Creating field dpdt

PIMPLE: iteration 1
DILUPBiCGStab:  Solving for H2, Initial residual = 0.05790815, Final residual = 8.302409e-12, No Iterations 152
Y: H2:0.229059 -> 0.8095232
Constructing momentum equations
DICPCG:  Solving for p_rgh, Initial residual = 0.06028753, Final residual = 5.295741e-05, No Iterations 191
DICPCG:  Solving for p_rgh, Initial residual = 0.01324882, Final residual = 1.106583e-05, No Iterations 194
DICPCG:  Solving for p_rgh, Initial residual = 0.006948618, Final residual = 8.831908e-11, No Iterations 227

Solve for region phiEA:

GAMGPCG:  Solving for phi, Initial residual = 0.0009076653, Final residual = 2.518435e-11, No Iterations 8

Solve for region phiEC:

GAMGPCG:  Solving for phi, Initial residual = 0.5590898, Final residual = 5.828858e-11, No Iterations 7

Solve for region phiI:

GAMG:  Solving for phi, Initial residual = 0.5939545, Final residual = 3.466273e-14, No Iterations 2

Map to cell 

Map air to Cell

Map fuel to Cell

Map electrolyte to Cell

Map interconnect to Cell

Map phiEA to Cell 

Map phiEC to Cell 

Map phiI to Cell 

Solving for temperature:

GAMGPBiCGStab:  Solving for T, Initial residual = 0.169267, Final residual = 8.310079e-11, No Iterations 13
T: min = 881.3588, mean = 898.1577, max = 899.5252
ExecutionTime = 23.31 s



Time = 0.02

Region: air Courant Number mean: 1.983784 max: 2
Region: fuel Courant Number mean: 0.001993243 max: 0.118

Map from cell 

Map air from Cell

Map fuel from Cell

Map electrolyte from Cell

Map interconnect from Cell

Map phiEA from Cell 

Map phiEC from Cell 

Map phiI from Cell 

Nernst air: min = -0.5485568, mean = -0.543609, max = -0.5277963
Total current (A) at ccl: 0.5886602

Correct diffusivity for specie: O2

Nernst fuel: min = -1.674174, mean = -1.588926, max = -1.578369
Total current (A) at acl: 0.3967081

Correct diffusivity for specie: H2

ibar: 7358.253	voltage: 0.9728003

Solve for single phase flow:

Reading hRef
Calculating field g.h

Creating field dpdt

PIMPLE: iteration 1
DILUPBiCGStab:  Solving for O2, Initial residual = 0.01520249, Final residual = 7.213146e-10, No Iterations 23
Y: O2:0.1392328 -> 0.2300927
Constructing momentum equations
DICPCG:  Solving for p_rgh, Initial residual = 0.00160066, Final residual = 1.320245e-06, No Iterations 205
DICPCG:  Solving for p_rgh, Initial residual = 0.0006185837, Final residual = 5.044275e-07, No Iterations 208
DICPCG:  Solving for p_rgh, Initial residual = 0.0004087075, Final residual = 8.850334e-11, No Iterations 232

Solve for single phase flow:

Reading hRef
Calculating field g.h

Creating field dpdt

PIMPLE: iteration 1
DILUPBiCGStab:  Solving for H2, Initial residual = 0.04746711, Final residual = 7.329944e-12, No Iterations 152
Y: H2:0.2160166 -> 0.8070676
Constructing momentum equations
DICPCG:  Solving for p_rgh, Initial residual = 0.02439374, Final residual = 2.234715e-05, No Iterations 185
DICPCG:  Solving for p_rgh, Initial residual = 0.00583611, Final residual = 5.43727e-06, No Iterations 193
DICPCG:  Solving for p_rgh, Initial residual = 0.003424117, Final residual = 7.763565e-11, No Iterations 226

Solve for region phiEA:

GAMGPCG:  Solving for phi, Initial residual = 0.0008965045, Final residual = 2.382119e-11, No Iterations 8

Solve for region phiEC:

GAMGPCG:  Solving for phi, Initial residual = 0.6223722, Final residual = 6.53208e-11, No Iterations 7

Solve for region phiI:

GAMG:  Solving for phi, Initial residual = 0.5541017, Final residual = 3.514116e-14, No Iterations 2

Map to cell 

Map air to Cell

Map fuel to Cell

Map electrolyte to Cell

Map interconnect to Cell

Map phiEA to Cell 

Map phiEC to Cell 

Map phiI to Cell 

Solving for temperature:

GAMGPBiCGStab:  Solving for T, Initial residual = 0.1648715, Final residual = 7.990112e-11, No Iterations 12
T: min = 881.6401, mean = 899.1374, max = 900.6312
ExecutionTime = 24.91 s



Time = 0.021

Region: air Courant Number mean: 1.983784 max: 2
Region: fuel Courant Number mean: 0.001993243 max: 0.118

Map from cell 

Map air from Cell

Map fuel from Cell

Map electrolyte from Cell

Map interconnect from Cell

Map phiEA from Cell 

Map phiEC from Cell 

Map phiI from Cell 

Nernst air: min = -0.5492869, mean = -0.5442409, max = -0.5280118
Total current (A) at ccl: 0.5994872

Correct diffusivity for specie: O2

Nernst fuel: min = -1.675356, mean = -1.587253, max = -1.575175
Total current (A) at acl: 0.4226928

Correct diffusivity for specie: H2

ibar: 7493.59	voltage: 0.9663828

Solve for single phase flow:

Reading hRef
Calculating field g.h

Creating field dpdt

PIMPLE: iteration 1
DILUPBiCGStab:  Solving for O2, Initial residual = 0.01391468, Final residual = 7.298029e-10, No Iterations 22
Y: O2:0.1390516 -> 0.2298849
Constructing momentum equations
DICPCG:  Solving for p_rgh, Initial residual = 0.001215059, Final residual = 1.1654e-06, No Iterations 206
DICPCG:  Solving for p_rgh, Initial residual = 0.0005841251, Final residual = 4.983334e-07, No Iterations 206
DICPCG:  Solving for p_rgh, Initial residual = 0.0003700635, Final residual = 7.718519e-11, No Iterations 231

Solve for single phase flow:

Reading hRef
Calculating field g.h

Creating field dpdt

PIMPLE: iteration 1
DILUPBiCGStab:  Solving for H2, Initial residual = 0.04025111, Final residual = 2.534003e-12, No Iterations 170
Y: H2:0.2049361 -> 0.8024582
Constructing momentum equations
DICPCG:  Solving for p_rgh, Initial residual = 0.01296907, Final residual = 9.495217e-06, No Iterations 190
DICPCG:  Solving for p_rgh, Initial residual = 0.003434496, Final residual = 2.471314e-06, No Iterations 194
DICPCG:  Solving for p_rgh, Initial residual = 0.002109941, Final residual = 9.352358e-11, No Iterations 224

Solve for region phiEA:

GAMGPCG:  Solving for phi, Initial residual = 0.000840313, Final residual = 1.840024e-11, No Iterations 8

Solve for region phiEC:

GAMGPCG:  Solving for phi, Initial residual = 0.5696173, Final residual = 6.033195e-11, No Iterations 7

Solve for region phiI:

GAMG:  Solving for phi, Initial residual = 0.5183708, Final residual = 3.711737e-14, No Iterations 2

Map to cell 

Map air to Cell

Map fuel to Cell

Map electrolyte to Cell

Map interconnect to Cell

Map phiEA to Cell 

Map phiEC to Cell 

Map phiI to Cell 

Solving for temperature:

GAMGPBiCGStab:  Solving for T, Initial residual = 0.1651685, Final residual = 2.674106e-11, No Iterations 13
T: min = 881.9183, mean = 900.1319, max = 901.7533
ExecutionTime = 26.95 s



Time = 0.022

Region: air Courant Number mean: 1.983784 max: 2
Region: fuel Courant Number mean: 0.001993243 max: 0.118

Map from cell 

Map air from Cell

Map fuel from Cell

Map electrolyte from Cell

Map interconnect from Cell

Map phiEA from Cell 

Map phiEC from Cell 

Map phiI from Cell 

Nernst air: min = -0.5499505, mean = -0.5448244, max = -0.5281833
Total current (A) at ccl: 0.6110747

Correct diffusivity for specie: O2

Nernst fuel: min = -1.675738, mean = -1.586322, max = -1.572178
Total current (A) at acl: 0.4572787

Correct diffusivity for specie: H2

ibar: 7638.434	voltage: 0.9613187

Solve for single phase flow:

Reading hRef
Calculating field g.h

Creating field dpdt

PIMPLE: iteration 1
DILUPBiCGStab:  Solving for O2, Initial residual = 0.01366602, Final residual = 8.651434e-10, No Iterations 22
Y: O2:0.1387631 -> 0.2300906
Constructing momentum equations
DICPCG:  Solving for p_rgh, Initial residual = 0.001372608, Final residual = 1.325227e-06, No Iterations 206
DICPCG:  Solving for p_rgh, Initial residual = 0.0005690757, Final residual = 4.023139e-07, No Iterations 208
DICPCG:  Solving for p_rgh, Initial residual = 0.0003608228, Final residual = 8.85821e-11, No Iterations 231

Solve for single phase flow:

Reading hRef
Calculating field g.h

Creating field dpdt

PIMPLE: iteration 1
DILUPBiCGStab:  Solving for H2, Initial residual = 0.03393782, Final residual = 5.012297e-12, No Iterations 167
Y: H2:0.1941421 -> 0.7971427
Constructing momentum equations
DICPCG:  Solving for p_rgh, Initial residual = 0.008751408, Final residual = 8.543159e-06, No Iterations 192
DICPCG:  Solving for p_rgh, Initial residual = 0.0024429, Final residual = 1.748067e-06, No Iterations 194
DICPCG:  Solving for p_rgh, Initial residual = 0.001538054, Final residual = 8.39713e-11, No Iterations 223

Solve for region phiEA:

GAMGPCG:  Solving for phi, Initial residual = 0.0008018407, Final residual = 1.50933e-11, No Iterations 8

Solve for region phiEC:

GAMGPCG:  Solving for phi, Initial residual = 0.4812898, Final residual = 5.10298e-11, No Iterations 7

Solve for region phiI:

GAMG:  Solving for phi, Initial residual = 0.4609559, Final residual = 3.720204e-14, No Iterations 2

Map to cell 

Map air to Cell

Map fuel to Cell

Map electrolyte to Cell

Map interconnect to Cell

Map phiEA to Cell 

Map phiEC to Cell 

Map phiI to Cell 

Solving for temperature:

GAMGPBiCGStab:  Solving for T, Initial residual = 0.1591414, Final residual = 8.67323e-11, No Iterations 12
T: min = 882.198, mean = 901.1238, max = 902.8281
ExecutionTime = 29.57 s



Time = 0.023

Region: air Courant Number mean: 1.983784 max: 2
Region: fuel Courant Number mean: 0.001993243 max: 0.118

Map from cell 

Map air from Cell

Map fuel from Cell

Map electrolyte from Cell

Map interconnect from Cell

Map phiEA from Cell 

Map phiEC from Cell 

Map phiI from Cell 

Nernst air: min = -0.5506535, mean = -0.5454395, max = -0.5283799
Total current (A) at ccl: 0.6133079

Correct diffusivity for specie: O2

Nernst fuel: min = -1.675387, mean = -1.585749, max = -1.569778
Total current (A) at acl: 0.4928771

Correct diffusivity for specie: H2

ibar: 7666.349	voltage: 0.9577031

Solve for single phase flow:

Reading hRef
Calculating field g.h

Creating field dpdt

PIMPLE: iteration 1
DILUPBiCGStab:  Solving for O2, Initial residual = 0.01264186, Final residual = 6.243591e-10, No Iterations 23
Y: O2:0.1384718 -> 0.2298838
Constructing momentum equations
DICPCG:  Solving for p_rgh, Initial residual = 0.001188641, Final residual = 7.120634e-07, No Iterations 208
DICPCG:  Solving for p_rgh, Initial residual = 0.0004403579, Final residual = 3.364809e-07, No Iterations 208
DICPCG:  Solving for p_rgh, Initial residual = 0.0002768419, Final residual = 5.818498e-11, No Iterations 229

Solve for single phase flow:

Reading hRef
Calculating field g.h

Creating field dpdt

PIMPLE: iteration 1
DILUPBiCGStab:  Solving for H2, Initial residual = 0.02884733, Final residual = 8.812257e-12, No Iterations 167
Y: H2:0.1845933 -> 0.7922549
Constructing momentum equations
DICPCG:  Solving for p_rgh, Initial residual = 0.006661804, Final residual = 5.554112e-06, No Iterations 194
DICPCG:  Solving for p_rgh, Initial residual = 0.001949635, Final residual = 1.773761e-06, No Iterations 193
DICPCG:  Solving for p_rgh, Initial residual = 0.001249651, Final residual = 9.906252e-11, No Iterations 221

Solve for region phiEA:

GAMGPCG:  Solving for phi, Initial residual = 0.0007482424, Final residual = 1.319793e-11, No Iterations 8

Solve for region phiEC:

GAMGPCG:  Solving for phi, Initial residual = 0.4564905, Final residual = 4.806182e-11, No Iterations 7

Solve for region phiI:

GAMG:  Solving for phi, Initial residual = 0.370207, Final residual = 3.816924e-14, No Iterations 2

Map to cell 

Map air to Cell

Map fuel to Cell

Map electrolyte to Cell

Map interconnect to Cell

Map phiEA to Cell 

Map phiEC to Cell 

Map phiI to Cell 

Solving for temperature:

GAMGPBiCGStab:  Solving for T, Initial residual = 0.1484591, Final residual = 8.758858e-11, No Iterations 12
T: min = 882.4723, mean = 902.0823, max = 903.848
ExecutionTime = 31.5 s



Time = 0.024

Region: air Courant Number mean: 1.983784 max: 2
Region: fuel Courant Number mean: 0.001993243 max: 0.118

Map from cell 

Map air from Cell

Map fuel from Cell

Map electrolyte from Cell

Map interconnect from Cell

Map phiEA from Cell 

Map phiEC from Cell 

Map phiI from Cell 

Nernst air: min = -0.5513903, mean = -0.5460589, max = -0.5285502
Total current (A) at ccl: 0.6149831

Correct diffusivity for specie: O2

Nernst fuel: min = -1.674609, mean = -1.58524, max = -1.567487
Total current (A) at acl: 0.5219924

Correct diffusivity for specie: H2

ibar: 7687.288	voltage: 0.9543666

Solve for single phase flow:

Reading hRef
Calculating field g.h

Creating field dpdt

PIMPLE: iteration 1
DILUPBiCGStab:  Solving for O2, Initial residual = 0.01245648, Final residual = 7.553878e-10, No Iterations 23
Y: O2:0.1382159 -> 0.2300912
Constructing momentum equations
DICPCG:  Solving for p_rgh, Initial residual = 0.0008069828, Final residual = 5.546662e-07, No Iterations 208
DICPCG:  Solving for p_rgh, Initial residual = 0.0003368177, Final residual = 3.264008e-07, No Iterations 208
DICPCG:  Solving for p_rgh, Initial residual = 0.0002216539, Final residual = 9.251508e-11, No Iterations 230

Solve for single phase flow:

Reading hRef
Calculating field g.h

Creating field dpdt

PIMPLE: iteration 1
DILUPBiCGStab:  Solving for H2, Initial residual = 0.0251345, Final residual = 3.416354e-12, No Iterations 169
Y: H2:0.1781801 -> 0.7884451
Constructing momentum equations
DICPCG:  Solving for p_rgh, Initial residual = 0.005228175, Final residual = 4.692223e-06, No Iterations 194
DICPCG:  Solving for p_rgh, Initial residual = 0.001524501, Final residual = 1.473524e-06, No Iterations 193
DICPCG:  Solving for p_rgh, Initial residual = 0.0009871743, Final residual = 8.350432e-11, No Iterations 221

Solve for region phiEA:

GAMGPCG:  Solving for phi, Initial residual = 0.0005749405, Final residual = 8.192935e-12, No Iterations 8

Solve for region phiEC:

GAMGPCG:  Solving for phi, Initial residual = 0.4395851, Final residual = 4.628651e-11, No Iterations 7

Solve for region phiI:

GAMG:  Solving for phi, Initial residual = 0.288616, Final residual = 3.868443e-14, No Iterations 2

Map to cell 

Map air to Cell

Map fuel to Cell

Map electrolyte to Cell

Map interconnect to Cell

Map phiEA to Cell 

Map phiEC to Cell 

Map phiI to Cell 

Solving for temperature:

GAMGPBiCGStab:  Solving for T, Initial residual = 0.1397306, Final residual = 8.531249e-11, No Iterations 12
T: min = 882.7433, mean = 903.0065, max = 904.8175
ExecutionTime = 33.06 s



Time = 0.025

Region: air Courant Number mean: 1.983784 max: 2
Region: fuel Courant Number mean: 0.001993243 max: 0.118

Map from cell 

Map air from Cell

Map fuel from Cell

Map electrolyte from Cell

Map interconnect from Cell

Map phiEA from Cell 

Map phiEC from Cell 

Map phiI from Cell 

Nernst air: min = -0.5521204, mean = -0.5466506, max = -0.5287423
Total current (A) at ccl: 0.6203367

Correct diffusivity for specie: O2

Nernst fuel: min = -1.673733, mean = -1.584587, max = -1.565196
Total current (A) at acl: 0.5412542

Correct diffusivity for specie: H2

ibar: 7754.209	voltage: 0.9512395

Solve for single phase flow:

Reading hRef
Calculating field g.h

Creating field dpdt

PIMPLE: iteration 1
DILUPBiCGStab:  Solving for O2, Initial residual = 0.01177756, Final residual = 1.628569e-10, No Iterations 23
Y: O2:0.1379265 -> 0.2298815
Constructing momentum equations
DICPCG:  Solving for p_rgh, Initial residual = 0.0007518849, Final residual = 6.142245e-07, No Iterations 208
DICPCG:  Solving for p_rgh, Initial residual = 0.0003688851, Final residual = 3.684937e-07, No Iterations 207
DICPCG:  Solving for p_rgh, Initial residual = 0.000228511, Final residual = 8.568191e-11, No Iterations 231

Solve for single phase flow:

Reading hRef
Calculating field g.h

Creating field dpdt

PIMPLE: iteration 1
DILUPBiCGStab:  Solving for H2, Initial residual = 0.02354979, Final residual = 8.580142e-12, No Iterations 161
Y: H2:0.1739088 -> 0.7859263
Constructing momentum equations
DICPCG:  Solving for p_rgh, Initial residual = 0.004197358, Final residual = 3.392169e-06, No Iterations 194
DICPCG:  Solving for p_rgh, Initial residual = 0.001258553, Final residual = 9.334003e-07, No Iterations 194
DICPCG:  Solving for p_rgh, Initial residual = 0.0008134333, Final residual = 7.330742e-11, No Iterations 221

Solve for region phiEA:

GAMGPCG:  Solving for phi, Initial residual = 0.0003649584, Final residual = 6.743587e-11, No Iterations 7

Solve for region phiEC:

GAMGPCG:  Solving for phi, Initial residual = 0.3807716, Final residual = 4.02435e-11, No Iterations 7

Solve for region phiI:

GAMG:  Solving for phi, Initial residual = 0.2432892, Final residual = 3.815223e-14, No Iterations 2

Map to cell 

Map air to Cell

Map fuel to Cell

Map electrolyte to Cell

Map interconnect to Cell

Map phiEA to Cell 

Map phiEC to Cell 

Map phiI to Cell 

Solving for temperature:

GAMGPBiCGStab:  Solving for T, Initial residual = 0.1354537, Final residual = 3.646371e-11, No Iterations 12
T: min = 883.0182, mean = 903.9241, max = 905.7908
ExecutionTime = 34.58 s



Time = 0.026

Region: air Courant Number mean: 1.983784 max: 2
Region: fuel Courant Number mean: 0.001993243 max: 0.118

Map from cell 

Map air from Cell

Map fuel from Cell

Map electrolyte from Cell

Map interconnect from Cell

Map phiEA from Cell 

Map phiEC from Cell 

Map phiI from Cell 

Nernst air: min = -0.5528601, mean = -0.5472132, max = -0.5289075
Total current (A) at ccl: 0.6241999

Correct diffusivity for specie: O2

Nernst fuel: min = -1.673003, mean = -1.583689, max = -1.56362
Total current (A) at acl: 0.5516451

Correct diffusivity for specie: H2

ibar: 7802.499	voltage: 0.9487815

Solve for single phase flow:

Reading hRef
Calculating field g.h

Creating field dpdt

PIMPLE: iteration 1
DILUPBiCGStab:  Solving for O2, Initial residual = 0.01165151, Final residual = 5.154894e-10, No Iterations 23
Y: O2:0.1376874 -> 0.2300923
Constructing momentum equations
DICPCG:  Solving for p_rgh, Initial residual = 0.0008020839, Final residual = 7.240696e-07, No Iterations 207
DICPCG:  Solving for p_rgh, Initial residual = 0.0003344687, Final residual = 3.134392e-07, No Iterations 206
DICPCG:  Solving for p_rgh, Initial residual = 0.0002059278, Final residual = 7.39281e-11, No Iterations 228

Solve for single phase flow:

Reading hRef
Calculating field g.h

Creating field dpdt

PIMPLE: iteration 1
DILUPBiCGStab:  Solving for H2, Initial residual = 0.0234437, Final residual = 3.620142e-12, No Iterations 165
Y: H2:0.1703406 -> 0.7845294
Constructing momentum equations
DICPCG:  Solving for p_rgh, Initial residual = 0.003621662, Final residual = 2.406751e-06, No Iterations 188
DICPCG:  Solving for p_rgh, Initial residual = 0.001125808, Final residual = 9.717687e-07, No Iterations 192
DICPCG:  Solving for p_rgh, Initial residual = 0.0007232561, Final residual = 6.545492e-11, No Iterations 221

Solve for region phiEA:

GAMGPCG:  Solving for phi, Initial residual = 0.0002085448, Final residual = 4.067475e-11, No Iterations 7

Solve for region phiEC:

GAMGPCG:  Solving for phi, Initial residual = 0.3287792, Final residual = 3.470436e-11, No Iterations 7

Solve for region phiI:

GAMG:  Solving for phi, Initial residual = 0.219766, Final residual = 3.705466e-14, No Iterations 2

Map to cell 

Map air to Cell

Map fuel to Cell

Map electrolyte to Cell

Map interconnect to Cell

Map phiEA to Cell 

Map phiEC to Cell 

Map phiI to Cell 

Solving for temperature:

GAMGPBiCGStab:  Solving for T, Initial residual = 0.1320569, Final residual = 7.865086e-11, No Iterations 11
T: min = 883.2976, mean = 904.8421, max = 906.7667
ExecutionTime = 36.05 s



Time = 0.027

Region: air Courant Number mean: 1.983784 max: 2
Region: fuel Courant Number mean: 0.001993243 max: 0.118

Map from cell 

Map air from Cell

Map fuel from Cell

Map electrolyte from Cell

Map interconnect from Cell

Map phiEA from Cell 

Map phiEC from Cell 

Map phiI from Cell 

Nernst air: min = -0.5536053, mean = -0.5477745, max = -0.5291003
Total current (A) at ccl: 0.6241

Correct diffusivity for specie: O2

Nernst fuel: min = -1.67255, mean = -1.58256, max = -1.562674
Total current (A) at acl: 0.5556736

Correct diffusivity for specie: H2

ibar: 7801.25	voltage: 0.9468065

Solve for single phase flow:

Reading hRef
Calculating field g.h

Creating field dpdt

PIMPLE: iteration 1
DILUPBiCGStab:  Solving for O2, Initial residual = 0.01116175, Final residual = 2.468946e-10, No Iterations 23
Y: O2:0.1375149 -> 0.2298802
Constructing momentum equations
DICPCG:  Solving for p_rgh, Initial residual = 0.0006751229, Final residual = 6.689388e-07, No Iterations 207
DICPCG:  Solving for p_rgh, Initial residual = 0.0003126869, Final residual = 2.410352e-07, No Iterations 207
DICPCG:  Solving for p_rgh, Initial residual = 0.0001908139, Final residual = 9.099792e-11, No Iterations 228

Solve for single phase flow:

Reading hRef
Calculating field g.h

Creating field dpdt

PIMPLE: iteration 1
DILUPBiCGStab:  Solving for H2, Initial residual = 0.02313757, Final residual = 9.851646e-12, No Iterations 163
Y: H2:0.1662817 -> 0.783847
Constructing momentum equations
DICPCG:  Solving for p_rgh, Initial residual = 0.003311404, Final residual = 2.787085e-06, No Iterations 192
DICPCG:  Solving for p_rgh, Initial residual = 0.001011254, Final residual = 7.407611e-07, No Iterations 189
DICPCG:  Solving for p_rgh, Initial residual = 0.0006431389, Final residual = 8.201878e-11, No Iterations 220

Solve for region phiEA:

GAMGPCG:  Solving for phi, Initial residual = 0.0001442007, Final residual = 3.366974e-11, No Iterations 7

Solve for region phiEC:

GAMGPCG:  Solving for phi, Initial residual = 0.328796, Final residual = 3.461666e-11, No Iterations 7

Solve for region phiI:

GAMG:  Solving for phi, Initial residual = 0.2038245, Final residual = 3.698242e-14, No Iterations 2

Map to cell 

Map air to Cell

Map fuel to Cell

Map electrolyte to Cell

Map interconnect to Cell

Map phiEA to Cell 

Map phiEC to Cell 

Map phiI to Cell 

Solving for temperature:

GAMGPBiCGStab:  Solving for T, Initial residual = 0.1282803, Final residual = 6.524049e-11, No Iterations 13
T: min = 883.5774, mean = 905.7503, max = 907.7305
ExecutionTime = 37.65 s



Time = 0.028

Region: air Courant Number mean: 1.983784 max: 2
Region: fuel Courant Number mean: 0.001993243 max: 0.118

Map from cell 

Map air from Cell

Map fuel from Cell

Map electrolyte from Cell

Map interconnect from Cell

Map phiEA from Cell 

Map phiEC from Cell 

Map phiI from Cell 

Nernst air: min = -0.5543385, mean = -0.548337, max = -0.5292707
Total current (A) at ccl: 0.6231474

Correct diffusivity for specie: O2

Nernst fuel: min = -1.672402, mean = -1.581293, max = -1.562018
Total current (A) at acl: 0.5558781

Correct diffusivity for specie: H2

ibar: 7789.342	voltage: 0.944819

Solve for single phase flow:

Reading hRef
Calculating field g.h

Creating field dpdt

PIMPLE: iteration 1
DILUPBiCGStab:  Solving for O2, Initial residual = 0.01102, Final residual = 7.103356e-10, No Iterations 23
Y: O2:0.137452 -> 0.230094
Constructing momentum equations
DICPCG:  Solving for p_rgh, Initial residual = 0.0006437401, Final residual = 5.717367e-07, No Iterations 207
DICPCG:  Solving for p_rgh, Initial residual = 0.0002772961, Final residual = 1.833982e-07, No Iterations 203
DICPCG:  Solving for p_rgh, Initial residual = 0.0001715361, Final residual = 7.103171e-11, No Iterations 230

Solve for single phase flow:

Reading hRef
Calculating field g.h

Creating field dpdt

PIMPLE: iteration 1
DILUPBiCGStab:  Solving for H2, Initial residual = 0.02149954, Final residual = 6.973948e-12, No Iterations 163
Y: H2:0.1612523 -> 0.7834512
Constructing momentum equations
DICPCG:  Solving for p_rgh, Initial residual = 0.002964692, Final residual = 2.495452e-06, No Iterations 193
DICPCG:  Solving for p_rgh, Initial residual = 0.000919651, Final residual = 9.003591e-07, No Iterations 186
DICPCG:  Solving for p_rgh, Initial residual = 0.0005799355, Final residual = 6.912751e-11, No Iterations 220

Solve for region phiEA:

GAMGPCG:  Solving for phi, Initial residual = 0.0001143018, Final residual = 2.683492e-11, No Iterations 7

Solve for region phiEC:

GAMGPCG:  Solving for phi, Initial residual = 0.3418056, Final residual = 3.593962e-11, No Iterations 7

Solve for region phiI:

GAMG:  Solving for phi, Initial residual = 0.196834, Final residual = 3.656978e-14, No Iterations 2

Map to cell 

Map air to Cell

Map fuel to Cell

Map electrolyte to Cell

Map interconnect to Cell

Map phiEA to Cell 

Map phiEC to Cell 

Map phiI to Cell 

Solving for temperature:

[...]
Y: O2:0.1632878 -> 0.2297513
Constructing momentum equations
DICPCG:  Solving for p_rgh, Initial residual = 5.05022e-06, Final residual = 4.919282e-09, No Iterations 209
DICPCG:  Solving for p_rgh, Initial residual = 2.11937e-06, Final residual = 1.901073e-09, No Iterations 208
DICPCG:  Solving for p_rgh, Initial residual = 1.173381e-06, Final residual = 7.419166e-11, No Iterations 217

Solve for single phase flow:

Reading hRef
Calculating field g.h

Creating field dpdt

PIMPLE: iteration 1
DILUPBiCGStab:  Solving for H2, Initial residual = 5.711921e-06, Final residual = 4.771925e-12, No Iterations 139
Y: H2:0.09063724 -> 0.8210973
Constructing momentum equations
DICPCG:  Solving for p_rgh, Initial residual = 1.349627e-06, Final residual = 1.122983e-09, No Iterations 197
DICPCG:  Solving for p_rgh, Initial residual = 5.198975e-07, Final residual = 4.987361e-10, No Iterations 191
DICPCG:  Solving for p_rgh, Initial residual = 3.262773e-07, Final residual = 9.340101e-11, No Iterations 198

Solve for region phiEA:

GAMGPCG:  Solving for phi, Initial residual = 1.565725e-07, Final residual = 5.075644e-11, No Iterations 4

Solve for region phiEC:

GAMGPCG:  Solving for phi, Initial residual = 0.001541833, Final residual = 7.463358e-11, No Iterations 5

Solve for region phiI:

GAMG:  Solving for phi, Initial residual = 0.0001420693, Final residual = 1.318362e-14, No Iterations 1

Map to cell 

Map air to Cell

Map fuel to Cell

Map electrolyte to Cell

Map interconnect to Cell

Map phiEA to Cell 

Map phiEC to Cell 

Map phiI to Cell 

Solving for temperature:

GAMGPBiCGStab:  Solving for T, Initial residual = 0.0005356353, Final residual = 5.28267e-11, No Iterations 8
T: min = 991.2662, mean = 1189.432, max = 1200.841
ExecutionTime = 1824.68 s



Time = 1.494

Region: air Courant Number mean: 1.983784 max: 2
Region: fuel Courant Number mean: 0.001993243 max: 0.118

Map from cell 

Map air from Cell

Map fuel from Cell

Map electrolyte from Cell

Map interconnect from Cell

Map phiEA from Cell 

Map phiEC from Cell 

Map phiI from Cell 

Nernst air: min = -0.7501125, mean = -0.7389323, max = -0.6004601
Total current (A) at ccl: 0.6399535

Correct diffusivity for specie: O2

Nernst fuel: min = -1.817788, mean = -1.676001, max = -1.634297
Total current (A) at acl: 0.6401455

Correct diffusivity for specie: H2

ibar: 7999.418	voltage: 0.7781233

Solve for single phase flow:

Reading hRef
Calculating field g.h

Creating field dpdt

PIMPLE: iteration 1
DILUPBiCGStab:  Solving for O2, Initial residual = 0.0004993908, Final residual = 9.719801e-10, No Iterations 21
Y: O2:0.1632853 -> 0.2301174
Constructing momentum equations
DICPCG:  Solving for p_rgh, Initial residual = 5.763855e-06, Final residual = 5.229431e-09, No Iterations 212
DICPCG:  Solving for p_rgh, Initial residual = 2.472536e-06, Final residual = 2.314135e-09, No Iterations 209
DICPCG:  Solving for p_rgh, Initial residual = 1.37782e-06, Final residual = 9.360766e-11, No Iterations 216

Solve for single phase flow:

Reading hRef
Calculating field g.h

Creating field dpdt

PIMPLE: iteration 1
DILUPBiCGStab:  Solving for H2, Initial residual = 5.692067e-06, Final residual = 8.95736e-12, No Iterations 129
Y: H2:0.0906368 -> 0.8210992
Constructing momentum equations
DICPCG:  Solving for p_rgh, Initial residual = 1.367719e-06, Final residual = 9.5923e-10, No Iterations 197
DICPCG:  Solving for p_rgh, Initial residual = 5.076018e-07, Final residual = 4.860133e-10, No Iterations 192
DICPCG:  Solving for p_rgh, Initial residual = 3.189558e-07, Final residual = 9.282209e-11, No Iterations 198

Solve for region phiEA:

GAMGPCG:  Solving for phi, Initial residual = 1.571519e-07, Final residual = 5.101384e-11, No Iterations 4

Solve for region phiEC:

GAMGPCG:  Solving for phi, Initial residual = 0.001397304, Final residual = 7.277647e-11, No Iterations 5

Solve for region phiI:

GAMG:  Solving for phi, Initial residual = 0.0001381965, Final residual = 1.347106e-14, No Iterations 1

Map to cell 

Map air to Cell

Map fuel to Cell

Map electrolyte to Cell

Map interconnect to Cell

Map phiEA to Cell 

Map phiEC to Cell 

Map phiI to Cell 

Solving for temperature:

GAMGPBiCGStab:  Solving for T, Initial residual = 0.0005348541, Final residual = 7.145589e-11, No Iterations 8
T: min = 991.2712, mean = 1189.445, max = 1200.853
ExecutionTime = 1825.95 s



Time = 1.495

Region: air Courant Number mean: 1.983784 max: 2
Region: fuel Courant Number mean: 0.001993243 max: 0.118

Map from cell 

Map air from Cell

Map fuel from Cell

Map electrolyte from Cell

Map interconnect from Cell

Map phiEA from Cell 

Map phiEC from Cell 

Map phiI from Cell 

Nernst air: min = -0.7501207, mean = -0.7389413, max = -0.600484
Total current (A) at ccl: 0.6399489

Correct diffusivity for specie: O2

Nernst fuel: min = -1.817795, mean = -1.676006, max = -1.634302
Total current (A) at acl: 0.6401453

Correct diffusivity for specie: H2

ibar: 7999.362	voltage: 0.7781175

Solve for single phase flow:

Reading hRef
Calculating field g.h

Creating field dpdt

PIMPLE: iteration 1
DILUPBiCGStab:  Solving for O2, Initial residual = 0.0006499816, Final residual = 8.260638e-10, No Iterations 20
Y: O2:0.1632895 -> 0.2297512
Constructing momentum equations
DICPCG:  Solving for p_rgh, Initial residual = 5.048459e-06, Final residual = 4.843486e-09, No Iterations 209
DICPCG:  Solving for p_rgh, Initial residual = 2.119218e-06, Final residual = 1.903984e-09, No Iterations 208
DICPCG:  Solving for p_rgh, Initial residual = 1.173083e-06, Final residual = 7.450765e-11, No Iterations 217

Solve for single phase flow:

Reading hRef
Calculating field g.h

Creating field dpdt

PIMPLE: iteration 1
DILUPBiCGStab:  Solving for H2, Initial residual = 5.690017e-06, Final residual = 9.788856e-12, No Iterations 134
Y: H2:0.09063635 -> 0.8211012
Constructing momentum equations
DICPCG:  Solving for p_rgh, Initial residual = 1.343181e-06, Final residual = 1.117808e-09, No Iterations 197
DICPCG:  Solving for p_rgh, Initial residual = 5.174944e-07, Final residual = 4.959588e-10, No Iterations 191
DICPCG:  Solving for p_rgh, Initial residual = 3.24798e-07, Final residual = 9.299137e-11, No Iterations 198

Solve for region phiEA:

GAMGPCG:  Solving for phi, Initial residual = 1.56058e-07, Final residual = 5.056995e-11, No Iterations 4

Solve for region phiEC:

GAMGPCG:  Solving for phi, Initial residual = 0.001533911, Final residual = 7.426802e-11, No Iterations 5

Solve for region phiI:

GAMG:  Solving for phi, Initial residual = 0.0001413224, Final residual = 1.346796e-14, No Iterations 1

Map to cell 

Map air to Cell

Map fuel to Cell

Map electrolyte to Cell

Map interconnect to Cell

Map phiEA to Cell 

Map phiEC to Cell 

Map phiI to Cell 

Solving for temperature:

GAMGPBiCGStab:  Solving for T, Initial residual = 0.0005327916, Final residual = 5.026515e-11, No Iterations 8
T: min = 991.2775, mean = 1189.458, max = 1200.866
ExecutionTime = 1827.15 s



Time = 1.496

Region: air Courant Number mean: 1.983784 max: 2
Region: fuel Courant Number mean: 0.001993243 max: 0.118

Map from cell 

Map air from Cell

Map fuel from Cell

Map electrolyte from Cell

Map interconnect from Cell

Map phiEA from Cell 

Map phiEC from Cell 

Map phiI from Cell 

Nernst air: min = -0.7501299, mean = -0.7389502, max = -0.6004676
Total current (A) at ccl: 0.6399537

Correct diffusivity for specie: O2

Nernst fuel: min = -1.817802, mean = -1.676012, max = -1.634306
Total current (A) at acl: 0.6401448

Correct diffusivity for specie: H2

ibar: 7999.422	voltage: 0.7781111

Solve for single phase flow:

Reading hRef
Calculating field g.h

Creating field dpdt

PIMPLE: iteration 1
DILUPBiCGStab:  Solving for O2, Initial residual = 0.000499346, Final residual = 9.729259e-10, No Iterations 21
Y: O2:0.163287 -> 0.2301174
Constructing momentum equations
DICPCG:  Solving for p_rgh, Initial residual = 5.758893e-06, Final residual = 5.222594e-09, No Iterations 212
DICPCG:  Solving for p_rgh, Initial residual = 2.470536e-06, Final residual = 2.312568e-09, No Iterations 209
DICPCG:  Solving for p_rgh, Initial residual = 1.376621e-06, Final residual = 9.266272e-11, No Iterations 216

Solve for single phase flow:

Reading hRef
Calculating field g.h

Creating field dpdt

PIMPLE: iteration 1
DILUPBiCGStab:  Solving for H2, Initial residual = 5.670539e-06, Final residual = 2.736868e-12, No Iterations 139
Y: H2:0.09063591 -> 0.8211032
Constructing momentum equations
DICPCG:  Solving for p_rgh, Initial residual = 1.361318e-06, Final residual = 9.543373e-10, No Iterations 197
DICPCG:  Solving for p_rgh, Initial residual = 5.052206e-07, Final residual = 4.834895e-10, No Iterations 192
DICPCG:  Solving for p_rgh, Initial residual = 3.174646e-07, Final residual = 9.24639e-11, No Iterations 198

Solve for region phiEA:

GAMGPCG:  Solving for phi, Initial residual = 1.566387e-07, Final residual = 5.082828e-11, No Iterations 4

Solve for region phiEC:

GAMGPCG:  Solving for phi, Initial residual = 0.001389391, Final residual = 7.241024e-11, No Iterations 5

Solve for region phiI:

GAMG:  Solving for phi, Initial residual = 0.0001374522, Final residual = 1.339234e-14, No Iterations 1

Map to cell 

Map air to Cell

Map fuel to Cell

Map electrolyte to Cell

Map interconnect to Cell

Map phiEA to Cell 

Map phiEC to Cell 

Map phiI to Cell 

Solving for temperature:

GAMGPBiCGStab:  Solving for T, Initial residual = 0.0005320182, Final residual = 9.967058e-11, No Iterations 7
T: min = 991.2825, mean = 1189.471, max = 1200.879
ExecutionTime = 1828.43 s



Time = 1.497

Region: air Courant Number mean: 1.983784 max: 2
Region: fuel Courant Number mean: 0.001993243 max: 0.118

Map from cell 

Map air from Cell

Map fuel from Cell

Map electrolyte from Cell

Map interconnect from Cell

Map phiEA from Cell 

Map phiEC from Cell 

Map phiI from Cell 

Nernst air: min = -0.7501381, mean = -0.7389593, max = -0.6004915
Total current (A) at ccl: 0.6399492

Correct diffusivity for specie: O2

Nernst fuel: min = -1.817809, mean = -1.676018, max = -1.63431
Total current (A) at acl: 0.6401446

Correct diffusivity for specie: H2

ibar: 7999.365	voltage: 0.7781053

Solve for single phase flow:

Reading hRef
Calculating field g.h

Creating field dpdt

PIMPLE: iteration 1
DILUPBiCGStab:  Solving for O2, Initial residual = 0.000649942, Final residual = 8.257942e-10, No Iterations 20
Y: O2:0.1632913 -> 0.2297512
Constructing momentum equations
DICPCG:  Solving for p_rgh, Initial residual = 5.04674e-06, Final residual = 4.767983e-09, No Iterations 209
DICPCG:  Solving for p_rgh, Initial residual = 2.119053e-06, Final residual = 1.906784e-09, No Iterations 208
DICPCG:  Solving for p_rgh, Initial residual = 1.172784e-06, Final residual = 7.476938e-11, No Iterations 217

Solve for single phase flow:

Reading hRef
Calculating field g.h

Creating field dpdt

PIMPLE: iteration 1
DILUPBiCGStab:  Solving for H2, Initial residual = 5.668213e-06, Final residual = 2.30524e-12, No Iterations 140
Y: H2:0.09063546 -> 0.8211052
Constructing momentum equations
DICPCG:  Solving for p_rgh, Initial residual = 1.336805e-06, Final residual = 1.112622e-09, No Iterations 197
DICPCG:  Solving for p_rgh, Initial residual = 5.151111e-07, Final residual = 4.930319e-10, No Iterations 191
DICPCG:  Solving for p_rgh, Initial residual = 3.233089e-07, Final residual = 9.253118e-11, No Iterations 198

Solve for region phiEA:

GAMGPCG:  Solving for phi, Initial residual = 1.555451e-07, Final residual = 5.038408e-11, No Iterations 4

Solve for region phiEC:

GAMGPCG:  Solving for phi, Initial residual = 0.001526034, Final residual = 7.390464e-11, No Iterations 5

Solve for region phiI:

GAMG:  Solving for phi, Initial residual = 0.0001405798, Final residual = 1.320076e-14, No Iterations 1

Map to cell 

Map air to Cell

Map fuel to Cell

Map electrolyte to Cell

Map interconnect to Cell

Map phiEA to Cell 

Map phiEC to Cell 

Map phiI to Cell 

Solving for temperature:

GAMGPBiCGStab:  Solving for T, Initial residual = 0.0005299639, Final residual = 4.674298e-11, No Iterations 8
T: min = 991.2888, mean = 1189.484, max = 1200.891
ExecutionTime = 1829.65 s



Time = 1.498

Region: air Courant Number mean: 1.983784 max: 2
Region: fuel Courant Number mean: 0.001993243 max: 0.118

Map from cell 

Map air from Cell

Map fuel from Cell

Map electrolyte from Cell

Map interconnect from Cell

Map phiEA from Cell 

Map phiEC from Cell 

Map phiI from Cell 

Nernst air: min = -0.7501472, mean = -0.7389681, max = -0.6004751
Total current (A) at ccl: 0.639954

Correct diffusivity for specie: O2

Nernst fuel: min = -1.817817, mean = -1.676023, max = -1.634314
Total current (A) at acl: 0.640144

Correct diffusivity for specie: H2

ibar: 7999.425	voltage: 0.778099

Solve for single phase flow:

Reading hRef
Calculating field g.h

Creating field dpdt

PIMPLE: iteration 1
DILUPBiCGStab:  Solving for O2, Initial residual = 0.0004993014, Final residual = 9.73909e-10, No Iterations 21
Y: O2:0.1632888 -> 0.2301174
Constructing momentum equations
DICPCG:  Solving for p_rgh, Initial residual = 5.753962e-06, Final residual = 5.215847e-09, No Iterations 212
DICPCG:  Solving for p_rgh, Initial residual = 2.468565e-06, Final residual = 2.311154e-09, No Iterations 209
DICPCG:  Solving for p_rgh, Initial residual = 1.375428e-06, Final residual = 9.176558e-11, No Iterations 216

Solve for single phase flow:

Reading hRef
Calculating field g.h

Creating field dpdt

PIMPLE: iteration 1
DILUPBiCGStab:  Solving for H2, Initial residual = 5.648856e-06, Final residual = 1.914303e-12, No Iterations 141
Y: H2:0.09063502 -> 0.8211072
Constructing momentum equations
DICPCG:  Solving for p_rgh, Initial residual = 1.354959e-06, Final residual = 9.497198e-10, No Iterations 197
DICPCG:  Solving for p_rgh, Initial residual = 5.028594e-07, Final residual = 4.804257e-10, No Iterations 192
DICPCG:  Solving for p_rgh, Initial residual = 3.160001e-07, Final residual = 9.197821e-11, No Iterations 198

Solve for region phiEA:

GAMGPCG:  Solving for phi, Initial residual = 1.561279e-07, Final residual = 5.064351e-11, No Iterations 4

Solve for region phiEC:

GAMGPCG:  Solving for phi, Initial residual = 0.001381523, Final residual = 7.204619e-11, No Iterations 5

Solve for region phiI:

GAMG:  Solving for phi, Initial residual = 0.0001367122, Final residual = 1.358913e-14, No Iterations 1

Map to cell 

Map air to Cell

Map fuel to Cell

Map electrolyte to Cell

Map interconnect to Cell

Map phiEA to Cell 

Map phiEC to Cell 

Map phiI to Cell 

Solving for temperature:

GAMGPBiCGStab:  Solving for T, Initial residual = 0.0005291982, Final residual = 9.930816e-11, No Iterations 7
T: min = 991.2937, mean = 1189.497, max = 1200.904
ExecutionTime = 1830.91 s



Time = 1.499

Region: air Courant Number mean: 1.983784 max: 2
Region: fuel Courant Number mean: 0.001993243 max: 0.118

Map from cell 

Map air from Cell

Map fuel from Cell

Map electrolyte from Cell

Map interconnect from Cell

Map phiEA from Cell 

Map phiEC from Cell 

Map phiI from Cell 

Nernst air: min = -0.7501553, mean = -0.7389771, max = -0.600499
Total current (A) at ccl: 0.6399494

Correct diffusivity for specie: O2

Nernst fuel: min = -1.817824, mean = -1.676029, max = -1.634318
Total current (A) at acl: 0.6401438

Correct diffusivity for specie: H2

ibar: 7999.368	voltage: 0.7780932

Solve for single phase flow:

Reading hRef
Calculating field g.h

Creating field dpdt

PIMPLE: iteration 1
DILUPBiCGStab:  Solving for O2, Initial residual = 0.0006499024, Final residual = 8.255068e-10, No Iterations 20
Y: O2:0.163293 -> 0.2297512
Constructing momentum equations
DICPCG:  Solving for p_rgh, Initial residual = 5.045045e-06, Final residual = 4.691662e-09, No Iterations 209
DICPCG:  Solving for p_rgh, Initial residual = 2.11887e-06, Final residual = 1.909633e-09, No Iterations 208
DICPCG:  Solving for p_rgh, Initial residual = 1.1725e-06, Final residual = 7.484914e-11, No Iterations 217

Solve for single phase flow:

Reading hRef
Calculating field g.h

Creating field dpdt

PIMPLE: iteration 1
DILUPBiCGStab:  Solving for H2, Initial residual = 5.646766e-06, Final residual = 9.404352e-12, No Iterations 134
Y: H2:0.09063458 -> 0.8211091
Constructing momentum equations
DICPCG:  Solving for p_rgh, Initial residual = 1.33045e-06, Final residual = 1.10805e-09, No Iterations 197
DICPCG:  Solving for p_rgh, Initial residual = 5.127551e-07, Final residual = 4.891533e-10, No Iterations 191
DICPCG:  Solving for p_rgh, Initial residual = 3.217993e-07, Final residual = 9.209947e-11, No Iterations 198

Solve for region phiEA:

GAMGPCG:  Solving for phi, Initial residual = 1.550346e-07, Final residual = 5.019906e-11, No Iterations 4

Solve for region phiEC:

GAMGPCG:  Solving for phi, Initial residual = 0.0015182, Final residual = 7.354344e-11, No Iterations 5

Solve for region phiI:

GAMG:  Solving for phi, Initial residual = 0.0001398416, Final residual = 1.331738e-14, No Iterations 1

Map to cell 

Map air to Cell

Map fuel to Cell

Map electrolyte to Cell

Map interconnect to Cell

Map phiEA to Cell 

Map phiEC to Cell 

Map phiI to Cell 

Solving for temperature:

GAMGPBiCGStab:  Solving for T, Initial residual = 0.000527152, Final residual = 4.231742e-11, No Iterations 8
T: min = 991.3, mean = 1189.51, max = 1200.917
ExecutionTime = 1832.18 s



Time = 1.5

Region: air Courant Number mean: 1.983784 max: 2
Region: fuel Courant Number mean: 0.001993243 max: 0.118

Map from cell 

Map air from Cell

Map fuel from Cell

Map electrolyte from Cell

Map interconnect from Cell

Map phiEA from Cell 

Map phiEC from Cell 

Map phiI from Cell 

Nernst air: min = -0.7501645, mean = -0.7389858, max = -0.6004826
Total current (A) at ccl: 0.6399543

Correct diffusivity for specie: O2

Nernst fuel: min = -1.817831, mean = -1.676035, max = -1.634323
Total current (A) at acl: 0.6401433

Correct diffusivity for specie: H2

ibar: 7999.428	voltage: 0.7780869

Solve for single phase flow:

Reading hRef
Calculating field g.h

Creating field dpdt

PIMPLE: iteration 1
DILUPBiCGStab:  Solving for O2, Initial residual = 0.0004992569, Final residual = 9.748323e-10, No Iterations 21
Y: O2:0.1632905 -> 0.2301174
Constructing momentum equations
DICPCG:  Solving for p_rgh, Initial residual = 5.749029e-06, Final residual = 5.209133e-09, No Iterations 212
DICPCG:  Solving for p_rgh, Initial residual = 2.466606e-06, Final residual = 2.309521e-09, No Iterations 209
DICPCG:  Solving for p_rgh, Initial residual = 1.374203e-06, Final residual = 9.078126e-11, No Iterations 216

Solve for single phase flow:

Reading hRef
Calculating field g.h

Creating field dpdt

PIMPLE: iteration 1
DILUPBiCGStab:  Solving for H2, Initial residual = 5.627398e-06, Final residual = 8.453632e-12, No Iterations 132
Y: H2:0.09063414 -> 0.8211111
Constructing momentum equations
DICPCG:  Solving for p_rgh, Initial residual = 1.348589e-06, Final residual = 9.442324e-10, No Iterations 197
DICPCG:  Solving for p_rgh, Initial residual = 5.004827e-07, Final residual = 4.780081e-10, No Iterations 192
DICPCG:  Solving for p_rgh, Initial residual = 3.145098e-07, Final residual = 9.151445e-11, No Iterations 198

Solve for region phiEA:

GAMGPCG:  Solving for phi, Initial residual = 1.556189e-07, Final residual = 5.045953e-11, No Iterations 4

Solve for region phiEC:

GAMGPCG:  Solving for phi, Initial residual = 0.001373698, Final residual = 7.168431e-11, No Iterations 5

Solve for region phiI:

GAMG:  Solving for phi, Initial residual = 0.0001359764, Final residual = 1.325314e-14, No Iterations 1

Map to cell 

Map air to Cell

Map fuel to Cell

Map electrolyte to Cell

Map interconnect to Cell

Map phiEA to Cell 

Map phiEC to Cell 

Map phiI to Cell 

Solving for temperature:

GAMGPBiCGStab:  Solving for T, Initial residual = 0.000526394, Final residual = 9.894307e-11, No Iterations 7
T: min = 991.3049, mean = 1189.523, max = 1200.929
ExecutionTime = 1834.14 s


End

