/*---------------------------------------------------------------------------*\
| =========                 |                                                 |
| \\      /  F ield         | OpenFOAM: The Open Source CFD Toolbox           |
|  \\    /   O peration     | Version:  2306                                  |
|   \\  /    A nd           | Website:  www.openfoam.com                      |
|    \\/     M anipulation  |                                                 |
\*---------------------------------------------------------------------------*/
Build  : _fbf00d6bf2-20230626 OPENFOAM=2306 version=v2306
Arch   : "LSB;label=32;scalar=64"
Exec   : openFuelCell
Date   : Nov 15 2024
Time   : 12:56:58
Host   : LAPTOP-5B06C84A
PID    : 12466
I/O    : uncollated
Case   : /home/catalina/OpenFOAM/openFuelCell2/run/SOFC
nProcs : 1
trapFpe: Floating point exception trapping enabled (FOAM_SIGFPE).
fileModificationChecking : Monitoring run-time modified files using timeStampMaster (fileModificationSkew 5, maxFileModificationPolls 20)
allowSystemOperations : Allowing user-supplied system call operations

// * * * * * * * * * * * * * * * * * * * * * * * * * * * * * * * * * * * * * //
Create time

Create mesh for time = 0

Creating fuel cell system


Reading g
Get cell properties from cellProperties


Creating regions: 
Creating air
Selecting regionType: fluid
Get region properties from regionProperties

Selecting phaseSystemType for region air: singlePhaseSystem
Creating phaseSystem from regionProperties

Creating porous model list from porousZones

Porosity region cathode:
    selecting model: DarcyForchheimer
    creating porous zone: cathode
Porosity region mpl:
    selecting model: DarcyForchheimer
    creating porous zone: mpl
Porosity region ccl:
    selecting model: DarcyForchheimer
    creating porous zone: ccl
Selecting phaseModel for air: reactingPhaseModel
Selecting thermodynamics package 
{
    type            heRhoThermo;
    mixture         multiComponentMixture;
    transport       sutherland;
    thermo          janaf;
    equationOfState perfectGas;
    specie          specie;
    energy          sensibleInternalEnergy;
}

Calculating face flux field phi
Selecting turbulence model type laminar
Selecting laminar stress model Stokes
Selecting combustion model electroChemicalReaction
Selecting saturationModel: ArdenBuck
Selecting activationOverpotentialModel: ButlerVolmer<heRhoThermo<multiComponentMixture<sutherland<janaf<perfectGas<specie>>,sensibleInternalEnergy>>>>
Selecting diffusivity model binaryFSG
Selecting diffusivity model porousFSG
Selecting diffusivity model porousFSG
Selecting diffusivity model porousFSG
No MRF models present


PIMPLE: Operating solver in PISO mode

Creating fuel
Selecting regionType: fluid
Get region properties from regionProperties

Selecting phaseSystemType for region fuel: singlePhaseSystem
Creating phaseSystem from regionProperties

Creating porous model list from porousZones

Porosity region anode:
    selecting model: DarcyForchheimer
    creating porous zone: anode
Porosity region mpl:
    selecting model: DarcyForchheimer
    creating porous zone: mpl
Porosity region acl:
    selecting model: DarcyForchheimer
    creating porous zone: acl
Selecting phaseModel for fuel: reactingPhaseModel
Selecting thermodynamics package 
{
    type            heRhoThermo;
    mixture         multiComponentMixture;
    transport       sutherland;
    thermo          janaf;
    equationOfState perfectGas;
    specie          specie;
    energy          sensibleInternalEnergy;
}

Calculating face flux field phi
Selecting turbulence model type laminar
Selecting laminar stress model Stokes
Selecting combustion model electroChemicalReaction
Selecting saturationModel: ArdenBuck
Selecting activationOverpotentialModel: ButlerVolmer<heRhoThermo<multiComponentMixture<sutherland<janaf<perfectGas<specie>>,sensibleInternalEnergy>>>>
Selecting diffusivity model binaryFSG
Selecting diffusivity model porousFSG
Selecting diffusivity model porousFSG
Selecting diffusivity model porousFSG
No MRF models present


PIMPLE: Operating solver in PISO mode

Creating electrolyte
Selecting regionType: solid
Get region properties from regionProperties

Selecting thermodynamics package 
{
    type            heSolidThermo;
    mixture         pureMixture;
    transport       constIso;
    thermo          hConst;
    equationOfState rhoConst;
    specie          specie;
    energy          sensibleEnthalpy;
}

Radiation model not active: radiationProperties not found
Selecting radiationModel none
Creating interconnect
Selecting regionType: solid
Get region properties from regionProperties

Selecting thermodynamics package 
{
    type            heSolidThermo;
    mixture         pureMixture;
    transport       constIso;
    thermo          hConst;
    equationOfState rhoConst;
    specie          specie;
    energy          sensibleEnthalpy;
}

Radiation model not active: radiationProperties not found
Selecting radiationModel none
Creating phiEA
Selecting regionType: electric
Get region properties from regionProperties

Selecting sigmaModel: constantSigma
Selecting sigmaModel: porousSigma
Selecting sigmaModel: porousSigma
Selecting sigmaModel: porousSigma
Creating phiEC
Selecting regionType: electric
Get region properties from regionProperties

Selecting sigmaModel: constantSigma
Selecting sigmaModel: porousSigma
Selecting sigmaModel: porousSigma
Selecting sigmaModel: porousSigma
Creating phiI
Selecting regionType: electric
Get region properties from regionProperties

Selecting dissolved water transfer Type: none
Selecting sigmaModel: constantSigma
Selecting sigmaModel: constantSigma
Selecting sigmaModel: constantSigma
Region: air Courant Number mean: 1.983784 max: 2
Region: fuel Courant Number mean: 0.001993243 max: 0.118

Starting time loop


Map to cell 

Map air to Cell

Map fuel to Cell

Map electrolyte to Cell

Map interconnect to Cell

Map phiEA to Cell 

Map phiEC to Cell 

Map phiI to Cell 


Time = 0.001

Region: air Courant Number mean: 1.983784 max: 2
Region: fuel Courant Number mean: 0.001993243 max: 0.118

Map from cell 

Map air from Cell

Map fuel from Cell

Map electrolyte from Cell

Map interconnect from Cell

Map phiEA from Cell 

Map phiEC from Cell 

Map phiI from Cell 

Selecting nernstModel for air: standard<heRhoThermo<multiComponentMixture<sutherland<janaf<perfectGas<specie>>,sensibleInternalEnergy>>>,heRhoThermo<multiComponentMixture<sutherland<janaf<perfectGas<specie>>,sensibleInternalEnergy>>>>
Nernst air: min = -0.655152, mean = -0.655152, max = -0.655152
Total current (A) at ccl: 1.19183

Correct diffusivity for specie: O2

diffusivityModels::binaryFSG:
    diffusing speciesA molWt diffVol: O2 31.9988 16.3
   background speciesB molWt diffVol: N2 28.0134 18.5
diffusivityModels::porousFSG:
    diffusing speciesA molWt diffVol:  O2 31.9988 16.3
    background speciesB molWt diffVol: N2 28.0134 18.5
    dPore      = dPore [0 1 0 0 0 0 0] 1.65e-05
    porosity   = 0.7
    tortuosity = 1.15
diffusivityModels::porousFSG:
    diffusing speciesA molWt diffVol:  O2 31.9988 16.3
    background speciesB molWt diffVol: N2 28.0134 18.5
    dPore      = dPore [0 1 0 0 0 0 0] 4.6e-05
    porosity   = 0.4
    tortuosity = 1.6
diffusivityModels::porousFSG:
    diffusing speciesA molWt diffVol:  O2 31.9988 16.3
    background speciesB molWt diffVol: N2 28.0134 18.5
    dPore      = dPore [0 1 0 0 0 0 0] 3.6e-05
    porosity   = 0.3
    tortuosity = 1.83
Selecting nernstModel for fuel: standard<heRhoThermo<multiComponentMixture<sutherland<janaf<perfectGas<specie>>,sensibleInternalEnergy>>>,heRhoThermo<multiComponentMixture<sutherland<janaf<perfectGas<specie>>,sensibleInternalEnergy>>>>
Nernst fuel: min = -1.798451, mean = -1.798451, max = -1.798451
Total current (A) at acl: 3.290362

Correct diffusivity for specie: H2

diffusivityModels::binaryFSG:
    diffusing speciesA molWt diffVol: H2 2.01594 6.12
   background speciesB molWt diffVol: H2O 18.01534 13.1
diffusivityModels::porousFSG:
    diffusing speciesA molWt diffVol:  H2 2.01594 6.12
    background speciesB molWt diffVol: H2O 18.01534 13.1
    dPore      = dPore [0 1 0 0 0 0 0] 1.333333e-06
    porosity   = 0.7
    tortuosity = 1.15
diffusivityModels::porousFSG:
    diffusing speciesA molWt diffVol:  H2 2.01594 6.12
    background speciesB molWt diffVol: H2O 18.01534 13.1
    dPore      = dPore [0 1 0 0 0 0 0] 1.333333e-06
    porosity   = 0.4
    tortuosity = 1.6
diffusivityModels::porousFSG:
    diffusing speciesA molWt diffVol:  H2 2.01594 6.12
    background speciesB molWt diffVol: H2O 18.01534 13.1
    dPore      = dPore [0 1 0 0 0 0 0] 1.333333e-06
    porosity   = 0.3
    tortuosity = 1.8
ibar: 14897.88	voltage: 0.7

Solve for single phase flow:

Reading hRef
Calculating field g.h

Creating field dpdt

PIMPLE: iteration 1
DILUPBiCGStab:  Solving for O2, Initial residual = 1, Final residual = 8.54841e-10, No Iterations 53
Y: O2:0.2133371 -> 0.2258214
Constructing momentum equations
DICPCG:  Solving for p_rgh, Initial residual = 1, Final residual = 0.0009180347, No Iterations 217
DICPCG:  Solving for p_rgh, Initial residual = 0.02846199, Final residual = 2.752991e-05, No Iterations 209
DICPCG:  Solving for p_rgh, Initial residual = 0.01712395, Final residual = 9.752737e-11, No Iterations 241

Solve for single phase flow:

Reading hRef
Calculating field g.h

Creating field dpdt

PIMPLE: iteration 1
DILUPBiCGStab:  Solving for H2, Initial residual = 1, Final residual = 9.857041e-12, No Iterations 166
Y: H2:0.7156088 -> 0.8664167
Constructing momentum equations
DICPCG:  Solving for p_rgh, Initial residual = 1, Final residual = 0.0005963659, No Iterations 206
DICPCG:  Solving for p_rgh, Initial residual = 0.05326666, Final residual = 4.742186e-05, No Iterations 203
DICPCG:  Solving for p_rgh, Initial residual = 0.03386983, Final residual = 9.603626e-11, No Iterations 237

Solve for region phiEA:

GAMGPCG:  Solving for phi, Initial residual = 1, Final residual = 2.615997e-11, No Iterations 11

Solve for region phiEC:

GAMGPCG:  Solving for phi, Initial residual = 1, Final residual = 9.534245e-11, No Iterations 7

Solve for region phiI:

GAMG:  Solving for phi, Initial residual = 1, Final residual = 6.362509e-15, No Iterations 2

Map to cell 

Map air to Cell

Map fuel to Cell

Map electrolyte to Cell

Map interconnect to Cell

Map phiEA to Cell 

Map phiEC to Cell 

Map phiI to Cell 

Solving for temperature:

GAMGPBiCGStab:  Solving for T, Initial residual = 1, Final residual = 3.57827e-11, No Iterations 14
T: min = 966.7256, mean = 1073.286, max = 1074.583
ExecutionTime = 2.48 s



Time = 0.002

Region: air Courant Number mean: 1.983784 max: 2
Region: fuel Courant Number mean: 0.001993243 max: 0.118

Map from cell 

Map air from Cell

Map fuel from Cell

Map electrolyte from Cell

Map interconnect from Cell

Map phiEA from Cell 

Map phiEC from Cell 

Map phiI from Cell 

Nernst air: min = -0.6586852, mean = -0.6552389, max = -0.6521658
Total current (A) at ccl: 1.623969

Correct diffusivity for specie: O2

Nernst fuel: min = -1.798451, mean = -1.798451, max = -1.798451
Total current (A) at acl: 5.546777

Correct diffusivity for specie: H2

ibar: 20299.61	voltage: 0.7689788

Solve for single phase flow:

Reading hRef
Calculating field g.h

Creating field dpdt

PIMPLE: iteration 1
DILUPBiCGStab:  Solving for O2, Initial residual = 0.374206, Final residual = 8.609692e-10, No Iterations 43
Y: O2:0.1976217 -> 0.2305826
Constructing momentum equations
DICPCG:  Solving for p_rgh, Initial residual = 0.04905353, Final residual = 3.513811e-05, No Iterations 212
DICPCG:  Solving for p_rgh, Initial residual = 0.02111005, Final residual = 1.546859e-05, No Iterations 211
DICPCG:  Solving for p_rgh, Initial residual = 0.01812729, Final residual = 6.166558e-11, No Iterations 244

Solve for single phase flow:

Reading hRef
Calculating field g.h

Creating field dpdt

PIMPLE: iteration 1
DILUPBiCGStab:  Solving for H2, Initial residual = 0.7720248, Final residual = 9.879149e-12, No Iterations 75
Y: H2:0.2865143 -> 0.7725672
Constructing momentum equations
DICPCG:  Solving for p_rgh, Initial residual = 0.04802343, Final residual = 4.400243e-05, No Iterations 203
DICPCG:  Solving for p_rgh, Initial residual = 0.01669025, Final residual = 1.564509e-05, No Iterations 204
DICPCG:  Solving for p_rgh, Initial residual = 0.01157149, Final residual = 8.070378e-11, No Iterations 235

Solve for region phiEA:

GAMGPCG:  Solving for phi, Initial residual = 0.006580036, Final residual = 8.320998e-12, No Iterations 9

Solve for region phiEC:

GAMGPCG:  Solving for phi, Initial residual = 0.9987905, Final residual = 6.650045e-12, No Iterations 8

Solve for region phiI:

GAMG:  Solving for phi, Initial residual = 0.9926457, Final residual = 3.186604e-15, No Iterations 2

Map to cell 

Map air to Cell

Map fuel to Cell

Map electrolyte to Cell

Map interconnect to Cell

Map phiEA to Cell 

Map phiEC to Cell 

Map phiI to Cell 

Solving for temperature:

GAMGPBiCGStab:  Solving for T, Initial residual = 0.2403215, Final residual = 4.992646e-11, No Iterations 12
T: min = 961.2146, mean = 1073.408, max = 1075.605
ExecutionTime = 3.79 s



Time = 0.003

Region: air Courant Number mean: 1.983784 max: 2
Region: fuel Courant Number mean: 0.001993243 max: 0.118

Map from cell 

Map air from Cell

Map fuel from Cell

Map electrolyte from Cell

Map interconnect from Cell

Map phiEA from Cell 

Map phiEC from Cell 

Map phiI from Cell 

Nernst air: min = -0.6577638, mean = -0.6565521, max = -0.584634
Total current (A) at ccl: 1.251226

Correct diffusivity for specie: O2

Nernst fuel: min = -1.79389, mean = -1.792533, max = -1.785052
Total current (A) at acl: 2.682179

Correct diffusivity for specie: H2

ibar: 15640.33	voltage: 0.8919749

Solve for single phase flow:

Reading hRef
Calculating field g.h

Creating field dpdt

PIMPLE: iteration 1
DILUPBiCGStab:  Solving for O2, Initial residual = 0.234772, Final residual = 2.621257e-10, No Iterations 41
Y: O2:0.1905088 -> 0.2298373
Constructing momentum equations
DICPCG:  Solving for p_rgh, Initial residual = 0.06591912, Final residual = 5.662814e-05, No Iterations 210
DICPCG:  Solving for p_rgh, Initial residual = 0.02297922, Final residual = 1.646219e-05, No Iterations 209
DICPCG:  Solving for p_rgh, Initial residual = 0.01289767, Final residual = 6.506437e-11, No Iterations 241

Solve for single phase flow:

Reading hRef
Calculating field g.h

Creating field dpdt

PIMPLE: iteration 1
DILUPBiCGStab:  Solving for H2, Initial residual = 0.1257886, Final residual = 7.961821e-12, No Iterations 61
Y: H2:0.1622647 -> 0.7079505
Constructing momentum equations
DICPCG:  Solving for p_rgh, Initial residual = 0.03388446, Final residual = 3.204311e-05, No Iterations 202
DICPCG:  Solving for p_rgh, Initial residual = 0.02910565, Final residual = 2.516572e-05, No Iterations 202
DICPCG:  Solving for p_rgh, Initial residual = 0.01471301, Final residual = 7.99446e-11, No Iterations 233

Solve for region phiEA:

GAMGPCG:  Solving for phi, Initial residual = 0.005051563, Final residual = 9.954806e-12, No Iterations 9

Solve for region phiEC:

GAMGPCG:  Solving for phi, Initial residual = 0.9979577, Final residual = 6.455342e-12, No Iterations 8

Solve for region phiI:

GAMG:  Solving for phi, Initial residual = 0.9504811, Final residual = 8.430767e-15, No Iterations 2

Map to cell 

Map air to Cell

Map fuel to Cell

Map electrolyte to Cell

Map interconnect to Cell

Map phiEA to Cell 

Map phiEC to Cell 

Map phiI to Cell 

Solving for temperature:

GAMGPBiCGStab:  Solving for T, Initial residual = 0.1924481, Final residual = 8.935185e-11, No Iterations 12
T: min = 959.7023, mean = 1073.822, max = 1076.919
ExecutionTime = 5.1 s



Time = 0.004

Region: air Courant Number mean: 1.983784 max: 2
Region: fuel Courant Number mean: 0.001993243 max: 0.118

Map from cell 

Map air from Cell

Map fuel from Cell

Map electrolyte from Cell

Map interconnect from Cell

Map phiEA from Cell 

Map phiEC from Cell 

Map phiI from Cell 

Nernst air: min = -0.6601606, mean = -0.6573001, max = -0.5804532
Total current (A) at ccl: 0.7066298

Correct diffusivity for specie: O2

Nernst fuel: min = -1.793399, mean = -1.757556, max = -1.743496
Total current (A) at acl: 1.343025

Correct diffusivity for specie: H2

ibar: 8832.872	voltage: 0.9683782

Solve for single phase flow:

Reading hRef
Calculating field g.h

Creating field dpdt

PIMPLE: iteration 1
DILUPBiCGStab:  Solving for O2, Initial residual = 0.2142676, Final residual = 4.579239e-10, No Iterations 41
Y: O2:0.1895069 -> 0.2300685
Constructing momentum equations
DICPCG:  Solving for p_rgh, Initial residual = 0.03530768, Final residual = 2.550959e-05, No Iterations 209
DICPCG:  Solving for p_rgh, Initial residual = 0.01282251, Final residual = 9.453715e-06, No Iterations 206
DICPCG:  Solving for p_rgh, Initial residual = 0.008522736, Final residual = 6.530135e-11, No Iterations 238

Solve for single phase flow:

Reading hRef
Calculating field g.h

Creating field dpdt

PIMPLE: iteration 1
DILUPBiCGStab:  Solving for H2, Initial residual = 0.2539985, Final residual = 3.054319e-12, No Iterations 84
Y: H2:0.1806784 -> 0.6970906
Constructing momentum equations
DICPCG:  Solving for p_rgh, Initial residual = 0.09605175, Final residual = 8.111525e-05, No Iterations 199
DICPCG:  Solving for p_rgh, Initial residual = 0.0181365, Final residual = 1.585921e-05, No Iterations 200
DICPCG:  Solving for p_rgh, Initial residual = 0.01255245, Final residual = 8.071211e-11, No Iterations 232

Solve for region phiEA:

GAMGPCG:  Solving for phi, Initial residual = 0.00486723, Final residual = 8.709381e-11, No Iterations 8

Solve for region phiEC:

GAMGPCG:  Solving for phi, Initial residual = 0.9895482, Final residual = 1.893872e-11, No Iterations 8

Solve for region phiI:

GAMG:  Solving for phi, Initial residual = 0.8706441, Final residual = 1.709743e-14, No Iterations 2

Map to cell 

Map air to Cell

Map fuel to Cell

Map electrolyte to Cell

Map interconnect to Cell

Map phiEA to Cell 

Map phiEC to Cell 

Map phiI to Cell 

Solving for temperature:

GAMGPBiCGStab:  Solving for T, Initial residual = 0.2725083, Final residual = 7.460181e-11, No Iterations 12
T: min = 958.858, mean = 1073.799, max = 1076.831
ExecutionTime = 6.4 s



Time = 0.005

Region: air Courant Number mean: 1.983784 max: 2
Region: fuel Courant Number mean: 0.001993243 max: 0.118

Map from cell 

Map air from Cell

Map fuel from Cell

Map electrolyte from Cell

Map interconnect from Cell

Map phiEA from Cell 

Map phiEC from Cell 

Map phiI from Cell 

Nernst air: min = -0.6617813, mean = -0.6579667, max = -0.5794963
Total current (A) at ccl: 0.5266638

Correct diffusivity for specie: O2

Nernst fuel: min = -1.751481, mean = -1.697558, max = -1.635002
Total current (A) at acl: 0.8260039

Correct diffusivity for specie: H2

ibar: 6583.297	voltage: 0.9767069

Solve for single phase flow:

Reading hRef
Calculating field g.h

Creating field dpdt

PIMPLE: iteration 1
DILUPBiCGStab:  Solving for O2, Initial residual = 0.1103355, Final residual = 3.064496e-10, No Iterations 44
Y: O2:0.1893471 -> 0.2299042
Constructing momentum equations
DICPCG:  Solving for p_rgh, Initial residual = 0.0212565, Final residual = 1.777115e-05, No Iterations 207
DICPCG:  Solving for p_rgh, Initial residual = 0.009390851, Final residual = 8.495032e-06, No Iterations 204
DICPCG:  Solving for p_rgh, Initial residual = 0.006654949, Final residual = 8.821188e-11, No Iterations 235

Solve for single phase flow:

Reading hRef
Calculating field g.h

Creating field dpdt

PIMPLE: iteration 1
DILUPBiCGStab:  Solving for H2, Initial residual = 0.3237381, Final residual = 2.933277e-12, No Iterations 119
Y: H2:0.1879056 -> 0.7406292
Constructing momentum equations
DICPCG:  Solving for p_rgh, Initial residual = 0.04155307, Final residual = 4.005073e-05, No Iterations 199
DICPCG:  Solving for p_rgh, Initial residual = 0.01470484, Final residual = 1.260382e-05, No Iterations 200
DICPCG:  Solving for p_rgh, Initial residual = 0.0113122, Final residual = 9.682152e-11, No Iterations 232

Solve for region phiEA:

GAMGPCG:  Solving for phi, Initial residual = 0.003689869, Final residual = 8.317413e-11, No Iterations 8

Solve for region phiEC:

GAMGPCG:  Solving for phi, Initial residual = 0.7581095, Final residual = 7.602111e-11, No Iterations 7

Solve for region phiI:

GAMG:  Solving for phi, Initial residual = 0.7436999, Final residual = 3.091772e-14, No Iterations 2

Map to cell 

Map air to Cell

Map fuel to Cell

Map electrolyte to Cell

Map interconnect to Cell

Map phiEA to Cell 

Map phiEC to Cell 

Map phiI to Cell 

Solving for temperature:

GAMGPBiCGStab:  Solving for T, Initial residual = 0.1208695, Final residual = 2.156921e-11, No Iterations 13
T: min = 958.3268, mean = 1073.643, max = 1076.936
ExecutionTime = 7.78 s



Time = 0.006

Region: air Courant Number mean: 1.983784 max: 2
Region: fuel Courant Number mean: 0.001993243 max: 0.118

Map from cell 

Map air from Cell

Map fuel from Cell

Map electrolyte from Cell

Map interconnect from Cell

Map phiEA from Cell 

Map phiEC from Cell 

Map phiI from Cell 

Nernst air: min = -0.662143, mean = -0.6579979, max = -0.578907
Total current (A) at ccl: 0.5973507

Correct diffusivity for specie: O2

Nernst fuel: min = -1.742222, mean = -1.680798, max = -1.62615
Total current (A) at acl: 0.3398314

Correct diffusivity for specie: H2

ibar: 7466.884	voltage: 0.9625399

Solve for single phase flow:

Reading hRef
Calculating field g.h

Creating field dpdt

PIMPLE: iteration 1
DILUPBiCGStab:  Solving for O2, Initial residual = 0.1060791, Final residual = 8.250902e-10, No Iterations 41
Y: O2:0.1871484 -> 0.230112
Constructing momentum equations
DICPCG:  Solving for p_rgh, Initial residual = 0.01293724, Final residual = 9.695392e-06, No Iterations 206
DICPCG:  Solving for p_rgh, Initial residual = 0.008348009, Final residual = 7.93629e-06, No Iterations 207
DICPCG:  Solving for p_rgh, Initial residual = 0.005967484, Final residual = 7.089247e-11, No Iterations 238

Solve for single phase flow:

Reading hRef
Calculating field g.h

Creating field dpdt

PIMPLE: iteration 1
DILUPBiCGStab:  Solving for H2, Initial residual = 0.3076908, Final residual = 7.176477e-12, No Iterations 137
Y: H2:0.1980878 -> 0.7802748
Constructing momentum equations
DICPCG:  Solving for p_rgh, Initial residual = 0.04029877, Final residual = 3.619754e-05, No Iterations 200
DICPCG:  Solving for p_rgh, Initial residual = 0.009254661, Final residual = 8.264931e-06, No Iterations 200
DICPCG:  Solving for p_rgh, Initial residual = 0.007229443, Final residual = 6.963566e-11, No Iterations 231

Solve for region phiEA:

GAMGPCG:  Solving for phi, Initial residual = 0.005670257, Final residual = 7.05826e-12, No Iterations 9

Solve for region phiEC:

GAMGPCG:  Solving for phi, Initial residual = 0.6111815, Final residual = 7.064432e-11, No Iterations 7

Solve for region phiI:

GAMG:  Solving for phi, Initial residual = 0.6950182, Final residual = 3.337205e-14, No Iterations 2

Map to cell 

Map air to Cell

Map fuel to Cell

Map electrolyte to Cell

Map interconnect to Cell

Map phiEA to Cell 

Map phiEC to Cell 

Map phiI to Cell 

Solving for temperature:

GAMGPBiCGStab:  Solving for T, Initial residual = 0.09738206, Final residual = 2.703466e-11, No Iterations 12
T: min = 958.3648, mean = 1074.404, max = 1078.279
ExecutionTime = 9.16 s



Time = 0.007

Region: air Courant Number mean: 1.983784 max: 2
Region: fuel Courant Number mean: 0.001993243 max: 0.118

Map from cell 

Map air from Cell

Map fuel from Cell

Map electrolyte from Cell

Map interconnect from Cell

Map phiEA from Cell 

Map phiEC from Cell 

Map phiI from Cell 

Nernst air: min = -0.6622647, mean = -0.6579872, max = -0.5785921
Total current (A) at ccl: 0.628482

Correct diffusivity for specie: O2

Nernst fuel: min = -1.735542, mean = -1.678541, max = -1.628941
Total current (A) at acl: 0.1869503

Correct diffusivity for specie: H2

ibar: 7856.025	voltage: 0.9572087

Solve for single phase flow:

Reading hRef
Calculating field g.h

Creating field dpdt

PIMPLE: iteration 1
DILUPBiCGStab:  Solving for O2, Initial residual = 0.09739389, Final residual = 9.13955e-10, No Iterations 48
Y: O2:0.1845735 -> 0.2298694
Constructing momentum equations
DICPCG:  Solving for p_rgh, Initial residual = 0.01348167, Final residual = 1.28105e-05, No Iterations 202
DICPCG:  Solving for p_rgh, Initial residual = 0.006675998, Final residual = 5.673071e-06, No Iterations 205
DICPCG:  Solving for p_rgh, Initial residual = 0.004709156, Final residual = 7.117762e-11, No Iterations 238

Solve for single phase flow:

Reading hRef
Calculating field g.h

Creating field dpdt

PIMPLE: iteration 1
DILUPBiCGStab:  Solving for H2, Initial residual = 0.2798892, Final residual = 5.953397e-12, No Iterations 154
Y: H2:0.2118166 -> 0.8155737
Constructing momentum equations
DICPCG:  Solving for p_rgh, Initial residual = 0.02042031, Final residual = 1.961039e-05, No Iterations 200
DICPCG:  Solving for p_rgh, Initial residual = 0.008663115, Final residual = 6.539249e-06, No Iterations 200
DICPCG:  Solving for p_rgh, Initial residual = 0.007050562, Final residual = 6.472636e-11, No Iterations 231

Solve for region phiEA:

GAMGPCG:  Solving for phi, Initial residual = 0.004190772, Final residual = 1.956742e-11, No Iterations 9

Solve for region phiEC:

GAMGPCG:  Solving for phi, Initial residual = 0.2717808, Final residual = 3.453437e-11, No Iterations 7

Solve for region phiI:

GAMG:  Solving for phi, Initial residual = 0.7940277, Final residual = 2.235674e-14, No Iterations 2

Map to cell 

Map air to Cell

Map fuel to Cell

Map electrolyte to Cell

Map interconnect to Cell

Map phiEA to Cell 

Map phiEC to Cell 

Map phiI to Cell 

Solving for temperature:

GAMGPBiCGStab:  Solving for T, Initial residual = 0.09171853, Final residual = 6.160337e-11, No Iterations 13
T: min = 958.6759, mean = 1075.462, max = 1079.796
ExecutionTime = 10.6 s



Time = 0.008

Region: air Courant Number mean: 1.983784 max: 2
Region: fuel Courant Number mean: 0.001993243 max: 0.118

Map from cell 

Map air from Cell

Map fuel from Cell

Map electrolyte from Cell

Map interconnect from Cell

Map phiEA from Cell 

Map phiEC from Cell 

Map phiI from Cell 

Nernst air: min = -0.6633155, mean = -0.6587276, max = -0.5785999
Total current (A) at ccl: 0.5725511

Correct diffusivity for specie: O2

Nernst fuel: min = -1.742626, mean = -1.674544, max = -1.632131
Total current (A) at acl: 0.170491

Correct diffusivity for specie: H2

ibar: 7156.889	voltage: 0.955769

Solve for single phase flow:

Reading hRef
Calculating field g.h

Creating field dpdt

PIMPLE: iteration 1
DILUPBiCGStab:  Solving for O2, Initial residual = 0.07198333, Final residual = 7.142641e-10, No Iterations 40
Y: O2:0.1827272 -> 0.2300666
Constructing momentum equations
DICPCG:  Solving for p_rgh, Initial residual = 0.008512772, Final residual = 7.154151e-06, No Iterations 208
DICPCG:  Solving for p_rgh, Initial residual = 0.004926318, Final residual = 3.248132e-06, No Iterations 208
DICPCG:  Solving for p_rgh, Initial residual = 0.003419443, Final residual = 9.871296e-11, No Iterations 237

Solve for single phase flow:

Reading hRef
Calculating field g.h

Creating field dpdt

PIMPLE: iteration 1
DILUPBiCGStab:  Solving for H2, Initial residual = 0.1594759, Final residual = 3.727049e-12, No Iterations 153
Y: H2:0.2260179 -> 0.8385178
Constructing momentum equations
DICPCG:  Solving for p_rgh, Initial residual = 0.02706171, Final residual = 2.357821e-05, No Iterations 200
DICPCG:  Solving for p_rgh, Initial residual = 0.01044472, Final residual = 8.262112e-06, No Iterations 200
DICPCG:  Solving for p_rgh, Initial residual = 0.008788332, Final residual = 8.811208e-11, No Iterations 231

Solve for region phiEA:

GAMGPCG:  Solving for phi, Initial residual = 0.001922928, Final residual = 1.387272e-11, No Iterations 9

Solve for region phiEC:

GAMGPCG:  Solving for phi, Initial residual = 0.6750176, Final residual = 6.961655e-11, No Iterations 7

Solve for region phiI:

GAMG:  Solving for phi, Initial residual = 0.7773155, Final residual = 2.401779e-14, No Iterations 2

Map to cell 

Map air to Cell

Map fuel to Cell

Map electrolyte to Cell

Map interconnect to Cell

Map phiEA to Cell 

Map phiEC to Cell 

Map phiI to Cell 

Solving for temperature:

GAMGPBiCGStab:  Solving for T, Initial residual = 0.09425077, Final residual = 8.727975e-11, No Iterations 11
T: min = 958.9467, mean = 1076.294, max = 1080.875
ExecutionTime = 11.96 s



Time = 0.009

Region: air Courant Number mean: 1.983784 max: 2
Region: fuel Courant Number mean: 0.001993243 max: 0.118

Map from cell 

Map air from Cell

Map fuel from Cell

Map electrolyte from Cell

Map interconnect from Cell

Map phiEA from Cell 

Map phiEC from Cell 

Map phiI from Cell 

Nernst air: min = -0.6645502, mean = -0.6597073, max = -0.5788384
Total current (A) at ccl: 0.5348176

Correct diffusivity for specie: O2

Nernst fuel: min = -1.753839, mean = -1.669685, max = -1.63585
Total current (A) at acl: 0.1804255

Correct diffusivity for specie: H2

ibar: 6685.22	voltage: 0.9473379

Solve for single phase flow:

Reading hRef
Calculating field g.h

Creating field dpdt

PIMPLE: iteration 1
DILUPBiCGStab:  Solving for O2, Initial residual = 0.05242269, Final residual = 8.780658e-10, No Iterations 36
Y: O2:0.1811772 -> 0.2298601
Constructing momentum equations
DICPCG:  Solving for p_rgh, Initial residual = 0.006197454, Final residual = 4.504886e-06, No Iterations 208
DICPCG:  Solving for p_rgh, Initial residual = 0.003919186, Final residual = 3.428172e-06, No Iterations 206
DICPCG:  Solving for p_rgh, Initial residual = 0.002786634, Final residual = 9.344928e-11, No Iterations 237

Solve for single phase flow:

Reading hRef
Calculating field g.h

Creating field dpdt

PIMPLE: iteration 1
DILUPBiCGStab:  Solving for H2, Initial residual = 0.1249742, Final residual = 1.647684e-12, No Iterations 156
Y: H2:0.2379579 -> 0.8460951
Constructing momentum equations
DICPCG:  Solving for p_rgh, Initial residual = 0.04188853, Final residual = 4.183281e-05, No Iterations 200
DICPCG:  Solving for p_rgh, Initial residual = 0.0168765, Final residual = 1.583069e-05, No Iterations 199
DICPCG:  Solving for p_rgh, Initial residual = 0.0151363, Final residual = 8.152896e-11, No Iterations 232

Solve for region phiEA:

GAMGPCG:  Solving for phi, Initial residual = 0.002371163, Final residual = 1.425401e-11, No Iterations 9

Solve for region phiEC:

GAMGPCG:  Solving for phi, Initial residual = 0.7803938, Final residual = 8.164973e-11, No Iterations 7

Solve for region phiI:

GAMG:  Solving for phi, Initial residual = 0.7524808, Final residual = 2.640585e-14, No Iterations 2

Map to cell 

Map air to Cell

Map fuel to Cell

Map electrolyte to Cell

Map interconnect to Cell

Map phiEA to Cell 

Map phiEC to Cell 

Map phiI to Cell 

Solving for temperature:

GAMGPBiCGStab:  Solving for T, Initial residual = 0.07841792, Final residual = 9.59976e-11, No Iterations 12
T: min = 959.1339, mean = 1076.974, max = 1081.704
ExecutionTime = 13.32 s



Time = 0.01

Region: air Courant Number mean: 1.983784 max: 2
Region: fuel Courant Number mean: 0.001993243 max: 0.118

Map from cell 

Map air from Cell

Map fuel from Cell

Map electrolyte from Cell

Map interconnect from Cell

Map phiEA from Cell 

Map phiEC from Cell 

Map phiI from Cell 

Nernst air: min = -0.665464, mean = -0.660423, max = -0.5790008
Total current (A) at ccl: 0.5508173

Correct diffusivity for specie: O2

Nernst fuel: min = -1.764375, mean = -1.668359, max = -1.640014
Total current (A) at acl: 0.2119633

Correct diffusivity for specie: H2

ibar: 6885.216	voltage: 0.9341901

Solve for single phase flow:

Reading hRef
Calculating field g.h

Creating field dpdt

PIMPLE: iteration 1
DILUPBiCGStab:  Solving for O2, Initial residual = 0.04961566, Final residual = 9.586665e-10, No Iterations 34
Y: O2:0.1791298 -> 0.2300474
Constructing momentum equations
DICPCG:  Solving for p_rgh, Initial residual = 0.004530581, Final residual = 4.278709e-06, No Iterations 207
DICPCG:  Solving for p_rgh, Initial residual = 0.003256726, Final residual = 2.853784e-06, No Iterations 205
DICPCG:  Solving for p_rgh, Initial residual = 0.00231005, Final residual = 8.939968e-11, No Iterations 237

Solve for single phase flow:

Reading hRef
Calculating field g.h

Creating field dpdt

PIMPLE: iteration 1
DILUPBiCGStab:  Solving for H2, Initial residual = 0.1165235, Final residual = 4.024452e-12, No Iterations 158
Y: H2:0.2434894 -> 0.841325
Constructing momentum equations
DICPCG:  Solving for p_rgh, Initial residual = 0.07001271, Final residual = 4.312388e-05, No Iterations 201
DICPCG:  Solving for p_rgh, Initial residual = 0.04304927, Final residual = 3.470383e-05, No Iterations 199
DICPCG:  Solving for p_rgh, Initial residual = 0.02202162, Final residual = 6.179092e-11, No Iterations 233

Solve for region phiEA:

GAMGPCG:  Solving for phi, Initial residual = 0.003110536, Final residual = 1.329005e-11, No Iterations 9

Solve for region phiEC:

GAMGPCG:  Solving for phi, Initial residual = 0.7631023, Final residual = 8.064613e-11, No Iterations 7

Solve for region phiI:

GAMG:  Solving for phi, Initial residual = 0.7418933, Final residual = 2.717986e-14, No Iterations 2

Map to cell 

Map air to Cell

Map fuel to Cell

Map electrolyte to Cell

Map interconnect to Cell

Map phiEA to Cell 

Map phiEC to Cell 

Map phiI to Cell 

Solving for temperature:

GAMGPBiCGStab:  Solving for T, Initial residual = 0.0693942, Final residual = 3.838653e-11, No Iterations 12
T: min = 959.279, mean = 1077.676, max = 1082.682
ExecutionTime = 14.7 s



Time = 0.011

Region: air Courant Number mean: 1.983784 max: 2
Region: fuel Courant Number mean: 0.001993243 max: 0.118

Map from cell 

Map air from Cell

Map fuel from Cell

Map electrolyte from Cell

Map interconnect from Cell

Map phiEA from Cell 

Map phiEC from Cell 

Map phiI from Cell 

Nernst air: min = -0.6662284, mean = -0.6610031, max = -0.5791473
Total current (A) at ccl: 0.5806766

Correct diffusivity for specie: O2

Nernst fuel: min = -1.771029, mean = -1.66861, max = -1.643883
Total current (A) at acl: 0.2653196

Correct diffusivity for specie: H2

ibar: 7258.458	voltage: 0.9230422

Solve for single phase flow:

Reading hRef
Calculating field g.h

Creating field dpdt

PIMPLE: iteration 1
DILUPBiCGStab:  Solving for O2, Initial residual = 0.03785256, Final residual = 6.645615e-10, No Iterations 30
Y: O2:0.1766679 -> 0.2298358
Constructing momentum equations
DICPCG:  Solving for p_rgh, Initial residual = 0.004129199, Final residual = 3.703528e-06, No Iterations 206
DICPCG:  Solving for p_rgh, Initial residual = 0.002902025, Final residual = 2.896e-06, No Iterations 206
DICPCG:  Solving for p_rgh, Initial residual = 0.002052776, Final residual = 9.177383e-11, No Iterations 236

Solve for single phase flow:

Reading hRef
Calculating field g.h

Creating field dpdt

PIMPLE: iteration 1
DILUPBiCGStab:  Solving for H2, Initial residual = 0.1090545, Final residual = 5.853196e-12, No Iterations 171
Y: H2:0.2383418 -> 0.8286106
Constructing momentum equations
DICPCG:  Solving for p_rgh, Initial residual = 0.06259793, Final residual = 5.449913e-05, No Iterations 200
DICPCG:  Solving for p_rgh, Initial residual = 0.01226716, Final residual = 1.223525e-05, No Iterations 198
DICPCG:  Solving for p_rgh, Initial residual = 0.007931418, Final residual = 9.050965e-11, No Iterations 230

Solve for region phiEA:

GAMGPCG:  Solving for phi, Initial residual = 0.0032568, Final residual = 1.540879e-11, No Iterations 9

Solve for region phiEC:

GAMGPCG:  Solving for phi, Initial residual = 0.6753185, Final residual = 7.184008e-11, No Iterations 7

Solve for region phiI:

GAMG:  Solving for phi, Initial residual = 0.7253002, Final residual = 2.83751e-14, No Iterations 2

Map to cell 

Map air to Cell

Map fuel to Cell

Map electrolyte to Cell

Map interconnect to Cell

Map phiEA to Cell 

Map phiEC to Cell 

Map phiI to Cell 

Solving for temperature:

GAMGPBiCGStab:  Solving for T, Initial residual = 0.07107815, Final residual = 4.472514e-11, No Iterations 12
T: min = 959.4054, mean = 1078.408, max = 1083.76
ExecutionTime = 16.13 s



Time = 0.012

Region: air Courant Number mean: 1.983784 max: 2
Region: fuel Courant Number mean: 0.001993243 max: 0.118

Map from cell 

Map air from Cell

Map fuel from Cell

Map electrolyte from Cell

Map interconnect from Cell

Map phiEA from Cell 

Map phiEC from Cell 

Map phiI from Cell 

Nernst air: min = -0.6671094, mean = -0.6616537, max = -0.5792346
Total current (A) at ccl: 0.5918866

Correct diffusivity for specie: O2

Nernst fuel: min = -1.772667, mean = -1.668979, max = -1.646959
Total current (A) at acl: 0.3434824

Correct diffusivity for specie: H2

ibar: 7398.583	voltage: 0.9156268

Solve for single phase flow:

Reading hRef
Calculating field g.h

Creating field dpdt

PIMPLE: iteration 1
DILUPBiCGStab:  Solving for O2, Initial residual = 0.02943199, Final residual = 7.481028e-10, No Iterations 29
Y: O2:0.1743854 -> 0.2300322
Constructing momentum equations
DICPCG:  Solving for p_rgh, Initial residual = 0.003687781, Final residual = 3.428506e-06, No Iterations 206
DICPCG:  Solving for p_rgh, Initial residual = 0.002249536, Final residual = 1.661612e-06, No Iterations 208
DICPCG:  Solving for p_rgh, Initial residual = 0.001604566, Final residual = 8.014505e-11, No Iterations 235

Solve for single phase flow:

Reading hRef
Calculating field g.h

Creating field dpdt

PIMPLE: iteration 1
DILUPBiCGStab:  Solving for H2, Initial residual = 0.09719272, Final residual = 5.429719e-12, No Iterations 177
Y: H2:0.2288032 -> 0.8135174
Constructing momentum equations
DICPCG:  Solving for p_rgh, Initial residual = 0.02724032, Final residual = 2.396325e-05, No Iterations 199
DICPCG:  Solving for p_rgh, Initial residual = 0.007213214, Final residual = 6.303012e-06, No Iterations 198
DICPCG:  Solving for p_rgh, Initial residual = 0.004779842, Final residual = 8.096936e-11, No Iterations 228

Solve for region phiEA:

GAMGPCG:  Solving for phi, Initial residual = 0.003352788, Final residual = 7.134067e-11, No Iterations 8

Solve for region phiEC:

GAMGPCG:  Solving for phi, Initial residual = 0.6152991, Final residual = 6.514684e-11, No Iterations 7

Solve for region phiI:

GAMG:  Solving for phi, Initial residual = 0.6706221, Final residual = 3.367127e-14, No Iterations 2

Map to cell 

Map air to Cell

Map fuel to Cell

Map electrolyte to Cell

Map interconnect to Cell

Map phiEA to Cell 

Map phiEC to Cell 

Map phiI to Cell 

Solving for temperature:

GAMGPBiCGStab:  Solving for T, Initial residual = 0.06546695, Final residual = 6.051864e-11, No Iterations 11
T: min = 959.4984, mean = 1079.066, max = 1084.896
ExecutionTime = 17.5 s



Time = 0.013

Region: air Courant Number mean: 1.983784 max: 2
Region: fuel Courant Number mean: 0.001993243 max: 0.118

Map from cell 

Map air from Cell

Map fuel from Cell

Map electrolyte from Cell

Map interconnect from Cell

Map phiEA from Cell 

Map phiEC from Cell 

Map phiI from Cell 

Nernst air: min = -0.6681221, mean = -0.6623012, max = -0.5793381
Total current (A) at ccl: 0.5947225

Correct diffusivity for specie: O2

Nernst fuel: min = -1.770533, mean = -1.669403, max = -1.647942
Total current (A) at acl: 0.4160046

Correct diffusivity for specie: H2

ibar: 7434.031	voltage: 0.9096126

Solve for single phase flow:

Reading hRef
Calculating field g.h

Creating field dpdt

PIMPLE: iteration 1
DILUPBiCGStab:  Solving for O2, Initial residual = 0.02588455, Final residual = 8.306541e-10, No Iterations 27
Y: O2:0.1724765 -> 0.2298194
Constructing momentum equations
DICPCG:  Solving for p_rgh, Initial residual = 0.002290524, Final residual = 2.207668e-06, No Iterations 208
DICPCG:  Solving for p_rgh, Initial residual = 0.001733332, Final residual = 1.440717e-06, No Iterations 206
DICPCG:  Solving for p_rgh, Initial residual = 0.001251956, Final residual = 6.605242e-11, No Iterations 235

Solve for single phase flow:

Reading hRef
Calculating field g.h

Creating field dpdt

PIMPLE: iteration 1
DILUPBiCGStab:  Solving for H2, Initial residual = 0.08130729, Final residual = 8.260877e-12, No Iterations 172
Y: H2:0.2171023 -> 0.800493
Constructing momentum equations
DICPCG:  Solving for p_rgh, Initial residual = 0.01783007, Final residual = 1.608839e-05, No Iterations 197
DICPCG:  Solving for p_rgh, Initial residual = 0.005168922, Final residual = 3.950097e-06, No Iterations 198
DICPCG:  Solving for p_rgh, Initial residual = 0.003492621, Final residual = 7.594287e-11, No Iterations 227

Solve for region phiEA:

GAMGPCG:  Solving for phi, Initial residual = 0.002418657, Final residual = 4.682859e-11, No Iterations 8

Solve for region phiEC:

GAMGPCG:  Solving for phi, Initial residual = 0.5962119, Final residual = 6.289891e-11, No Iterations 7

Solve for region phiI:

GAMG:  Solving for phi, Initial residual = 0.5723078, Final residual = 3.993544e-14, No Iterations 2

Map to cell 

Map air to Cell

Map fuel to Cell

Map electrolyte to Cell

Map interconnect to Cell

Map phiEA to Cell 

Map phiEC to Cell 

Map phiI to Cell 

Solving for temperature:

GAMGPBiCGStab:  Solving for T, Initial residual = 0.05468716, Final residual = 6.891577e-11, No Iterations 12
T: min = 959.5697, mean = 1079.619, max = 1086.009
ExecutionTime = 18.82 s



Time = 0.014

Region: air Courant Number mean: 1.983784 max: 2
Region: fuel Courant Number mean: 0.001993243 max: 0.118

Map from cell 

Map air from Cell

Map fuel from Cell

Map electrolyte from Cell

Map interconnect from Cell

Map phiEA from Cell 

Map phiEC from Cell 

Map phiI from Cell 

Nernst air: min = -0.669157, mean = -0.6628731, max = -0.5793925
Total current (A) at ccl: 0.6028938

Correct diffusivity for specie: O2

Nernst fuel: min = -1.766387, mean = -1.669599, max = -1.646427
Total current (A) at acl: 0.4692648

Correct diffusivity for specie: H2

ibar: 7536.173	voltage: 0.9039529

Solve for single phase flow:

Reading hRef
Calculating field g.h

Creating field dpdt

PIMPLE: iteration 1
DILUPBiCGStab:  Solving for O2, Initial residual = 0.02347682, Final residual = 6.303313e-10, No Iterations 29
Y: O2:0.1708073 -> 0.230027
Constructing momentum equations
DICPCG:  Solving for p_rgh, Initial residual = 0.001725236, Final residual = 1.291245e-06, No Iterations 209
DICPCG:  Solving for p_rgh, Initial residual = 0.001423888, Final residual = 8.97955e-07, No Iterations 208
DICPCG:  Solving for p_rgh, Initial residual = 0.001035405, Final residual = 8.146664e-11, No Iterations 234

Solve for single phase flow:

Reading hRef
Calculating field g.h

Creating field dpdt

PIMPLE: iteration 1
DILUPBiCGStab:  Solving for H2, Initial residual = 0.06632446, Final residual = 2.992034e-12, No Iterations 173
Y: H2:0.2074126 -> 0.7917913
Constructing momentum equations
DICPCG:  Solving for p_rgh, Initial residual = 0.01381227, Final residual = 1.074631e-05, No Iterations 197
DICPCG:  Solving for p_rgh, Initial residual = 0.004237959, Final residual = 3.165086e-06, No Iterations 198
DICPCG:  Solving for p_rgh, Initial residual = 0.002874265, Final residual = 9.891444e-11, No Iterations 226

Solve for region phiEA:

GAMGPCG:  Solving for phi, Initial residual = 0.001559074, Final residual = 2.962617e-11, No Iterations 8

Solve for region phiEC:

GAMGPCG:  Solving for phi, Initial residual = 0.5462823, Final residual = 5.791817e-11, No Iterations 7

Solve for region phiI:

GAMG:  Solving for phi, Initial residual = 0.4593181, Final residual = 4.220108e-14, No Iterations 2

Map to cell 

Map air to Cell

Map fuel to Cell

Map electrolyte to Cell

Map interconnect to Cell

Map phiEA to Cell 

Map phiEC to Cell 

Map phiI to Cell 

Solving for temperature:

GAMGPBiCGStab:  Solving for T, Initial residual = 0.04555356, Final residual = 5.879894e-11, No Iterations 13
T: min = 959.6516, mean = 1080.132, max = 1087.136
ExecutionTime = 20.24 s



Time = 0.015

Region: air Courant Number mean: 1.983784 max: 2
Region: fuel Courant Number mean: 0.001993243 max: 0.118

Map from cell 

Map air from Cell

Map fuel from Cell

Map electrolyte from Cell

Map interconnect from Cell

Map phiEA from Cell 

Map phiEC from Cell 

Map phiI from Cell 

Nernst air: min = -0.6701452, mean = -0.6633531, max = -0.5794553
Total current (A) at ccl: 0.6139086

Correct diffusivity for specie: O2

Nernst fuel: min = -1.761952, mean = -1.669236, max = -1.644151
Total current (A) at acl: 0.5019979

Correct diffusivity for specie: H2

ibar: 7673.857	voltage: 0.8993147

Solve for single phase flow:

Reading hRef
Calculating field g.h

Creating field dpdt

PIMPLE: iteration 1
DILUPBiCGStab:  Solving for O2, Initial residual = 0.0225742, Final residual = 8.198076e-10, No Iterations 29
Y: O2:0.1691038 -> 0.2298005
Constructing momentum equations
DICPCG:  Solving for p_rgh, Initial residual = 0.001472846, Final residual = 1.033131e-06, No Iterations 209
DICPCG:  Solving for p_rgh, Initial residual = 0.001202556, Final residual = 8.568092e-07, No Iterations 205
DICPCG:  Solving for p_rgh, Initial residual = 0.0008719095, Final residual = 6.540166e-11, No Iterations 234

Solve for single phase flow:

Reading hRef
Calculating field g.h

Creating field dpdt

PIMPLE: iteration 1
DILUPBiCGStab:  Solving for H2, Initial residual = 0.05597228, Final residual = 8.759458e-12, No Iterations 172
Y: H2:0.2056683 -> 0.7875106
Constructing momentum equations
DICPCG:  Solving for p_rgh, Initial residual = 0.01221061, Final residual = 1.04216e-05, No Iterations 196
DICPCG:  Solving for p_rgh, Initial residual = 0.00398791, Final residual = 3.878661e-06, No Iterations 197
DICPCG:  Solving for p_rgh, Initial residual = 0.002692689, Final residual = 9.322981e-11, No Iterations 226

Solve for region phiEA:

GAMGPCG:  Solving for phi, Initial residual = 0.001069969, Final residual = 2.8966e-11, No Iterations 8

Solve for region phiEC:

GAMGPCG:  Solving for phi, Initial residual = 0.4550089, Final residual = 4.82902e-11, No Iterations 7

Solve for region phiI:

GAMG:  Solving for phi, Initial residual = 0.3892409, Final residual = 4.284971e-14, No Iterations 2

Map to cell 

Map air to Cell

Map fuel to Cell

Map electrolyte to Cell

Map interconnect to Cell

Map phiEA to Cell 

Map phiEC to Cell 

Map phiI to Cell 

Solving for temperature:

GAMGPBiCGStab:  Solving for T, Initial residual = 0.03890506, Final residual = 6.946785e-11, No Iterations 11
T: min = 959.7676, mean = 1080.641, max = 1088.237
ExecutionTime = 21.6 s



Time = 0.016

Region: air Courant Number mean: 1.983784 max: 2
Region: fuel Courant Number mean: 0.001993243 max: 0.118

Map from cell 

Map air from Cell

Map fuel from Cell

Map electrolyte from Cell

Map interconnect from Cell

Map phiEA from Cell 

Map phiEC from Cell 

Map phiI from Cell 

Nernst air: min = -0.6711155, mean = -0.6638085, max = -0.579503
Total current (A) at ccl: 0.6197897

Correct diffusivity for specie: O2

Nernst fuel: min = -1.758385, mean = -1.668044, max = -1.641133
Total current (A) at acl: 0.5169696

Correct diffusivity for specie: H2

ibar: 7747.371	voltage: 0.8960532

Solve for single phase flow:

Reading hRef
Calculating field g.h

Creating field dpdt

PIMPLE: iteration 1
DILUPBiCGStab:  Solving for O2, Initial residual = 0.02052206, Final residual = 9.80036e-10, No Iterations 26
Y: O2:0.1673618 -> 0.2300245
Constructing momentum equations
DICPCG:  Solving for p_rgh, Initial residual = 0.001340161, Final residual = 1.095201e-06, No Iterations 209
DICPCG:  Solving for p_rgh, Initial residual = 0.0009484116, Final residual = 8.19996e-07, No Iterations 208
DICPCG:  Solving for p_rgh, Initial residual = 0.0006912396, Final residual = 5.575921e-11, No Iterations 234

Solve for single phase flow:

Reading hRef
Calculating field g.h

Creating field dpdt

PIMPLE: iteration 1
DILUPBiCGStab:  Solving for H2, Initial residual = 0.05256011, Final residual = 3.786017e-12, No Iterations 159
Y: H2:0.2077908 -> 0.7865056
Constructing momentum equations
DICPCG:  Solving for p_rgh, Initial residual = 0.0117389, Final residual = 1.102666e-05, No Iterations 194
DICPCG:  Solving for p_rgh, Initial residual = 0.003977626, Final residual = 3.627995e-06, No Iterations 197
DICPCG:  Solving for p_rgh, Initial residual = 0.002653702, Final residual = 7.890653e-11, No Iterations 226

Solve for region phiEA:

GAMGPCG:  Solving for phi, Initial residual = 0.0007587089, Final residual = 2.866392e-11, No Iterations 8

Solve for region phiEC:

GAMGPCG:  Solving for phi, Initial residual = 0.3883249, Final residual = 4.120337e-11, No Iterations 7

Solve for region phiI:

GAMG:  Solving for phi, Initial residual = 0.3536, Final residual = 4.282041e-14, No Iterations 2

Map to cell 

Map air to Cell

Map fuel to Cell

Map electrolyte to Cell

Map interconnect to Cell

Map phiEA to Cell 

Map phiEC to Cell 

Map phiI to Cell 

Solving for temperature:

GAMGPBiCGStab:  Solving for T, Initial residual = 0.03402383, Final residual = 4.178183e-11, No Iterations 11
T: min = 959.9179, mean = 1081.149, max = 1089.291
ExecutionTime = 22.89 s



Time = 0.017

Region: air Courant Number mean: 1.983784 max: 2
Region: fuel Courant Number mean: 0.001993243 max: 0.118

Map from cell 

Map air from Cell

Map fuel from Cell

Map electrolyte from Cell

Map interconnect from Cell

Map phiEA from Cell 

Map phiEC from Cell 

Map phiI from Cell 

Nernst air: min = -0.67208, mean = -0.6642663, max = -0.5795947
Total current (A) at ccl: 0.6193507

Correct diffusivity for specie: O2

Nernst fuel: min = -1.756157, mean = -1.666026, max = -1.640037
Total current (A) at acl: 0.5186869

Correct diffusivity for specie: H2

ibar: 7741.884	voltage: 0.893527

Solve for single phase flow:

Reading hRef
Calculating field g.h

Creating field dpdt

PIMPLE: iteration 1
DILUPBiCGStab:  Solving for O2, Initial residual = 0.01663618, Final residual = 9.392761e-10, No Iterations 27
Y: O2:0.1656392 -> 0.229788
Constructing momentum equations
DICPCG:  Solving for p_rgh, Initial residual = 0.001002516, Final residual = 9.741647e-07, No Iterations 208
DICPCG:  Solving for p_rgh, Initial residual = 0.00076666, Final residual = 5.969793e-07, No Iterations 206
DICPCG:  Solving for p_rgh, Initial residual = 0.0005595992, Final residual = 7.246198e-11, No Iterations 233

Solve for single phase flow:

Reading hRef
Calculating field g.h

Creating field dpdt

PIMPLE: iteration 1
DILUPBiCGStab:  Solving for H2, Initial residual = 0.04987771, Final residual = 8.835325e-13, No Iterations 156
Y: H2:0.2088564 -> 0.7872797
Constructing momentum equations
DICPCG:  Solving for p_rgh, Initial residual = 0.01198843, Final residual = 1.028382e-05, No Iterations 193
DICPCG:  Solving for p_rgh, Initial residual = 0.004128192, Final residual = 4.009704e-06, No Iterations 196
DICPCG:  Solving for p_rgh, Initial residual = 0.002693384, Final residual = 7.14294e-11, No Iterations 226

Solve for region phiEA:

GAMGPCG:  Solving for phi, Initial residual = 0.0005751627, Final residual = 2.356781e-11, No Iterations 8

Solve for region phiEC:

GAMGPCG:  Solving for phi, Initial residual = 0.3910985, Final residual = 4.115867e-11, No Iterations 7

Solve for region phiI:

GAMG:  Solving for phi, Initial residual = 0.3394569, Final residual = 4.167818e-14, No Iterations 2

Map to cell 

Map air to Cell

Map fuel to Cell

Map electrolyte to Cell

Map interconnect to Cell

Map phiEA to Cell 

Map phiEC to Cell 

Map phiI to Cell 

Solving for temperature:

GAMGPBiCGStab:  Solving for T, Initial residual = 0.0306364, Final residual = 9.77206e-11, No Iterations 11
T: min = 960.0918, mean = 1081.652, max = 1090.181
ExecutionTime = 24.22 s



Time = 0.018

Region: air Courant Number mean: 1.983784 max: 2
Region: fuel Courant Number mean: 0.001993243 max: 0.118

Map from cell 

Map air from Cell

Map fuel from Cell

Map electrolyte from Cell

Map interconnect from Cell

Map phiEA from Cell 

Map phiEC from Cell 

Map phiI from Cell 

Nernst air: min = -0.6730055, mean = -0.664713, max = -0.5796862
Total current (A) at ccl: 0.6169862

Correct diffusivity for specie: O2

Nernst fuel: min = -1.755192, mean = -1.663369, max = -1.640543
Total current (A) at acl: 0.5121236

Correct diffusivity for specie: H2

ibar: 7712.328	voltage: 0.8909458

Solve for single phase flow:

Reading hRef
Calculating field g.h

Creating field dpdt

PIMPLE: iteration 1
DILUPBiCGStab:  Solving for O2, Initial residual = 0.01237201, Final residual = 8.902676e-10, No Iterations 25
Y: O2:0.1641575 -> 0.2300266
Constructing momentum equations
DICPCG:  Solving for p_rgh, Initial residual = 0.0007984974, Final residual = 5.890265e-07, No Iterations 209
DICPCG:  Solving for p_rgh, Initial residual = 0.0006066042, Final residual = 4.356744e-07, No Iterations 208
DICPCG:  Solving for p_rgh, Initial residual = 0.00044985, Final residual = 9.096473e-11, No Iterations 231

Solve for single phase flow:

Reading hRef
Calculating field g.h

Creating field dpdt

PIMPLE: iteration 1
DILUPBiCGStab:  Solving for H2, Initial residual = 0.04606675, Final residual = 5.863022e-12, No Iterations 165
Y: H2:0.2056352 -> 0.7885272
Constructing momentum equations
DICPCG:  Solving for p_rgh, Initial residual = 0.01215486, Final residual = 1.160079e-05, No Iterations 191
DICPCG:  Solving for p_rgh, Initial residual = 0.004270523, Final residual = 3.914121e-06, No Iterations 195
DICPCG:  Solving for p_rgh, Initial residual = 0.002723555, Final residual = 6.747967e-11, No Iterations 226

Solve for region phiEA:

GAMGPCG:  Solving for phi, Initial residual = 0.0004926745, Final residual = 1.612298e-11, No Iterations 8

Solve for region phiEC:

GAMGPCG:  Solving for phi, Initial residual = 0.4173105, Final residual = 4.384448e-11, No Iterations 7

Solve for region phiI:

GAMG:  Solving for phi, Initial residual = 0.3445324, Final residual = 4.034061e-14, No Iterations 2

Map to cell 

Map air to Cell

Map fuel to Cell

Map electrolyte to Cell

Map interconnect to Cell

Map phiEA to Cell 

Map phiEC to Cell 

Map phiI to Cell 

Solving for temperature:

GAMGPBiCGStab:  Solving for T, Initial residual = 0.02904674, Final residual = 2.293759e-11, No Iterations 11
T: min = 960.2787, mean = 1082.15, max = 1090.919
ExecutionTime = 25.55 s



Time = 0.019

Region: air Courant Number mean: 1.983784 max: 2
Region: fuel Courant Number mean: 0.001993243 max: 0.118

Map from cell 

Map air from Cell

Map fuel from Cell

Map electrolyte from Cell

Map interconnect from Cell

Map phiEA from Cell 

Map phiEC from Cell 

Map phiI from Cell 

Nernst air: min = -0.6738464, mean = -0.6651371, max = -0.5798146
Total current (A) at ccl: 0.6157016

Correct diffusivity for specie: O2

Nernst fuel: min = -1.755126, mean = -1.660382, max = -1.641316
Total current (A) at acl: 0.5022668

Correct diffusivity for specie: H2

ibar: 7696.27	voltage: 0.8880691

Solve for single phase flow:

Reading hRef
Calculating field g.h

Creating field dpdt

PIMPLE: iteration 1
DILUPBiCGStab:  Solving for O2, Initial residual = 0.01072564, Final residual = 8.067841e-10, No Iterations 24
Y: O2:0.1630223 -> 0.2297778
Constructing momentum equations
DICPCG:  Solving for p_rgh, Initial residual = 0.0006544106, Final residual = 5.617929e-07, No Iterations 208
DICPCG:  Solving for p_rgh, Initial residual = 0.000483974, Final residual = 2.710632e-07, No Iterations 208
DICPCG:  Solving for p_rgh, Initial residual = 0.0003634622, Final residual = 7.238875e-11, No Iterations 231

Solve for single phase flow:

Reading hRef
Calculating field g.h

Creating field dpdt

PIMPLE: iteration 1
DILUPBiCGStab:  Solving for H2, Initial residual = 0.04176017, Final residual = 7.686825e-12, No Iterations 158
Y: H2:0.1978356 -> 0.7893811
Constructing momentum equations
DICPCG:  Solving for p_rgh, Initial residual = 0.01145532, Final residual = 1.065184e-05, No Iterations 190
DICPCG:  Solving for p_rgh, Initial residual = 0.004054604, Final residual = 3.200153e-06, No Iterations 188
DICPCG:  Solving for p_rgh, Initial residual = 0.002529472, Final residual = 8.992883e-11, No Iterations 225

Solve for region phiEA:

GAMGPCG:  Solving for phi, Initial residual = 0.0004335189, Final residual = 8.865286e-11, No Iterations 7

Solve for region phiEC:

GAMGPCG:  Solving for phi, Initial residual = 0.4314476, Final residual = 4.546971e-11, No Iterations 7

Solve for region phiI:

GAMG:  Solving for phi, Initial residual = 0.3619073, Final residual = 3.97273e-14, No Iterations 2

Map to cell 

Map air to Cell

Map fuel to Cell

Map electrolyte to Cell

Map interconnect to Cell

Map phiEA to Cell 

Map phiEC to Cell 

Map phiI to Cell 

Solving for temperature:

GAMGPBiCGStab:  Solving for T, Initial residual = 0.02906078, Final residual = 1.314541e-11, No Iterations 11
T: min = 960.4748, mean = 1082.654, max = 1091.521
ExecutionTime = 26.86 s



Time = 0.02

Region: air Courant Number mean: 1.983784 max: 2
Region: fuel Courant Number mean: 0.001993243 max: 0.118

Map from cell 

Map air from Cell

Map fuel from Cell

Map electrolyte from Cell

Map interconnect from Cell

Map phiEA from Cell 

Map phiEC from Cell 

Map phiI from Cell 

Nernst air: min = -0.6745618, mean = -0.6655346, max = -0.5799288
Total current (A) at ccl: 0.6151715

Correct diffusivity for specie: O2

Nernst fuel: min = -1.755536, mean = -1.657418, max = -1.64122
Total current (A) at acl: 0.4935988

Correct diffusivity for specie: H2

ibar: 7689.644	voltage: 0.8850318

Solve for single phase flow:

Reading hRef
Calculating field g.h

Creating field dpdt

PIMPLE: iteration 1
DILUPBiCGStab:  Solving for O2, Initial residual = 0.01048245, Final residual = 3.233265e-10, No Iterations 25
Y: O2:0.1621738 -> 0.2300278
Constructing momentum equations
DICPCG:  Solving for p_rgh, Initial residual = 0.0004857587, Final residual = 3.695986e-07, No Iterations 209
DICPCG:  Solving for p_rgh, Initial residual = 0.0003888507, Final residual = 3.774012e-07, No Iterations 203
DICPCG:  Solving for p_rgh, Initial residual = 0.00029922, Final residual = 7.339345e-11, No Iterations 231

Solve for single phase flow:

Reading hRef
Calculating field g.h

Creating field dpdt

PIMPLE: iteration 1
DILUPBiCGStab:  Solving for H2, Initial residual = 0.03510139, Final residual = 3.743091e-12, No Iterations 159
Y: H2:0.1872138 -> 0.789431
Constructing momentum equations
DICPCG:  Solving for p_rgh, Initial residual = 0.009836314, Final residual = 9.247289e-06, No Iterations 189
DICPCG:  Solving for p_rgh, Initial residual = 0.003418984, Final residual = 2.651708e-06, No Iterations 196
DICPCG:  Solving for p_rgh, Initial residual = 0.002108466, Final residual = 6.902603e-11, No Iterations 225

Solve for region phiEA:

GAMGPCG:  Solving for phi, Initial residual = 0.000380412, Final residual = 7.345064e-11, No Iterations 7

Solve for region phiEC:

GAMGPCG:  Solving for phi, Initial residual = 0.4372, Final residual = 4.620664e-11, No Iterations 7

Solve for region phiI:

GAMG:  Solving for phi, Initial residual = 0.3774336, Final residual = 3.814797e-14, No Iterations 2

Map to cell 

Map air to Cell

Map fuel to Cell

Map electrolyte to Cell

Map interconnect to Cell

Map phiEA to Cell 

Map phiEC to Cell 

Map phiI to Cell 

Solving for temperature:

GAMGPBiCGStab:  Solving for T, Initial residual = 0.02948744, Final residual = 2.614869e-11, No Iterations 12
T: min = 960.6735, mean = 1083.169, max = 1092.066
ExecutionTime = 28.21 s



Time = 0.021

Region: air Courant Number mean: 1.983784 max: 2
Region: fuel Courant Number mean: 0.001993243 max: 0.118

Map from cell 

Map air from Cell

Map fuel from Cell

Map electrolyte from Cell

Map interconnect from Cell

Map phiEA from Cell 

Map phiEC from Cell 

Map phiI from Cell 

Nernst air: min = -0.6751472, mean = -0.6659274, max = -0.5800715
Total current (A) at ccl: 0.6143613

Correct diffusivity for specie: O2

Nernst fuel: min = -1.756066, mean = -1.654778, max = -1.639739
Total current (A) at acl: 0.4892434

Correct diffusivity for specie: H2

ibar: 7679.517	voltage: 0.8819282

Solve for single phase flow:

Reading hRef
Calculating field g.h

Creating field dpdt

PIMPLE: iteration 1
DILUPBiCGStab:  Solving for O2, Initial residual = 0.009954659, Final residual = 9.278707e-10, No Iterations 25
Y: O2:0.1615091 -> 0.2297714
Constructing momentum equations
DICPCG:  Solving for p_rgh, Initial residual = 0.0003763209, Final residual = 3.287533e-07, No Iterations 208
DICPCG:  Solving for p_rgh, Initial residual = 0.0003255185, Final residual = 2.921621e-07, No Iterations 205
DICPCG:  Solving for p_rgh, Initial residual = 0.0002514177, Final residual = 6.681597e-11, No Iterations 229

Solve for single phase flow:

Reading hRef
Calculating field g.h

Creating field dpdt

PIMPLE: iteration 1
DILUPBiCGStab:  Solving for H2, Initial residual = 0.02811972, Final residual = 8.207775e-12, No Iterations 154
Y: H2:0.1759515 -> 0.7886181
Constructing momentum equations
DICPCG:  Solving for p_rgh, Initial residual = 0.007906121, Final residual = 5.232169e-06, No Iterations 194
DICPCG:  Solving for p_rgh, Initial residual = 0.002683024, Final residual = 2.045909e-06, No Iterations 196
DICPCG:  Solving for p_rgh, Initial residual = 0.001653433, Final residual = 5.246715e-11, No Iterations 225

Solve for region phiEA:

GAMGPCG:  Solving for phi, Initial residual = 0.0003455445, Final residual = 6.789094e-11, No Iterations 7

Solve for region phiEC:

GAMGPCG:  Solving for phi, Initial residual = 0.4452784, Final residual = 4.701609e-11, No Iterations 7

Solve for region phiI:

GAMG:  Solving for phi, Initial residual = 0.3803321, Final residual = 3.731343e-14, No Iterations 2

Map to cell 

Map air to Cell

Map fuel to Cell

Map electrolyte to Cell

Map interconnect to Cell

Map phiEA to Cell 

Map phiEC to Cell 

Map phiI to Cell 

Solving for temperature:

GAMGPBiCGStab:  Solving for T, Initial residual = 0.0296671, Final residual = 8.077565e-11, No Iterations 12
T: min = 960.8699, mean = 1083.688, max = 1092.599
ExecutionTime = 29.54 s



Time = 0.022

Region: air Courant Number mean: 1.983784 max: 2
Region: fuel Courant Number mean: 0.001993243 max: 0.118

Map from cell 

Map air from Cell

Map fuel from Cell

Map electrolyte from Cell

Map interconnect from Cell

Map phiEA from Cell 

Map phiEC from Cell 

Map phiI from Cell 

Nernst air: min = -0.6756509, mean = -0.6663241, max = -0.5801925
Total current (A) at ccl: 0.6136568

Correct diffusivity for specie: O2

Nernst fuel: min = -1.756481, mean = -1.652634, max = -1.637032
Total current (A) at acl: 0.4904338

Correct diffusivity for specie: H2

ibar: 7670.71	voltage: 0.8787234

Solve for single phase flow:

Reading hRef
Calculating field g.h

Creating field dpdt

PIMPLE: iteration 1
DILUPBiCGStab:  Solving for O2, Initial residual = 0.009968261, Final residual = 7.526938e-10, No Iterations 26
Y: O2:0.1609713 -> 0.2300285
Constructing momentum equations
DICPCG:  Solving for p_rgh, Initial residual = 0.000323689, Final residual = 2.479686e-07, No Iterations 209
DICPCG:  Solving for p_rgh, Initial residual = 0.0002720587, Final residual = 2.597452e-07, No Iterations 202
DICPCG:  Solving for p_rgh, Initial residual = 0.0002119874, Final residual = 8.444527e-11, No Iterations 229

Solve for single phase flow:

Reading hRef
Calculating field g.h

Creating field dpdt

PIMPLE: iteration 1
DILUPBiCGStab:  Solving for H2, Initial residual = 0.02200856, Final residual = 9.332115e-12, No Iterations 168
Y: H2:0.1656625 -> 0.7871081
Constructing momentum equations
DICPCG:  Solving for p_rgh, Initial residual = 0.006289859, Final residual = 5.744413e-06, No Iterations 183
DICPCG:  Solving for p_rgh, Initial residual = 0.002078273, Final residual = 1.574297e-06, No Iterations 196
DICPCG:  Solving for p_rgh, Initial residual = 0.001287851, Final residual = 7.329041e-11, No Iterations 224

Solve for region phiEA:

GAMGPCG:  Solving for phi, Initial residual = 0.000338552, Final residual = 7.175819e-11, No Iterations 7

Solve for region phiEC:

GAMGPCG:  Solving for phi, Initial residual = 0.4522734, Final residual = 4.772451e-11, No Iterations 7

Solve for region phiI:

GAMG:  Solving for phi, Initial residual = 0.3691324, Final residual = 3.716401e-14, No Iterations 2

Map to cell 

Map air to Cell

Map fuel to Cell

Map electrolyte to Cell

Map interconnect to Cell

Map phiEA to Cell 

Map phiEC to Cell 

Map phiI to Cell 

Solving for temperature:

GAMGPBiCGStab:  Solving for T, Initial residual = 0.02958392, Final residual = 1.963756e-11, No Iterations 11
T: min = 961.0597, mean = 1084.205, max = 1093.157
ExecutionTime = 30.86 s



Time = 0.023

Region: air Courant Number mean: 1.983784 max: 2
Region: fuel Courant Number mean: 0.001993243 max: 0.118

Map from cell 

Map air from Cell

Map fuel from Cell

Map electrolyte from Cell

Map interconnect from Cell

Map phiEA from Cell 

Map phiEC from Cell 

Map phiI from Cell 

Nernst air: min = -0.6761161, mean = -0.6667195, max = -0.5803352
Total current (A) at ccl: 0.6139732

Correct diffusivity for specie: O2

Nernst fuel: min = -1.756668, mean = -1.651013, max = -1.633689
Total current (A) at acl: 0.4967373

Correct diffusivity for specie: H2

ibar: 7674.665	voltage: 0.8754305

Solve for single phase flow:

Reading hRef
Calculating field g.h

Creating field dpdt

PIMPLE: iteration 1
DILUPBiCGStab:  Solving for O2, Initial residual = 0.009291374, Final residual = 9.269429e-10, No Iterations 24
Y: O2:0.1604766 -> 0.229767
Constructing momentum equations
DICPCG:  Solving for p_rgh, Initial residual = 0.0003245707, Final residual = 2.636786e-07, No Iterations 207
DICPCG:  Solving for p_rgh, Initial residual = 0.0002546211, Final residual = 2.420395e-07, No Iterations 201
DICPCG:  Solving for p_rgh, Initial residual = 0.0001901221, Final residual = 8.234588e-11, No Iterations 225

Solve for single phase flow:

Reading hRef
Calculating field g.h

Creating field dpdt

PIMPLE: iteration 1
DILUPBiCGStab:  Solving for H2, Initial residual = 0.01720655, Final residual = 7.856654e-12, No Iterations 164
Y: H2:0.157179 -> 0.7851772
Constructing momentum equations
DICPCG:  Solving for p_rgh, Initial residual = 0.004959215, Final residual = 4.422063e-06, No Iterations 194
DICPCG:  Solving for p_rgh, Initial residual = 0.001621606, Final residual = 1.510322e-06, No Iterations 194
DICPCG:  Solving for p_rgh, Initial residual = 0.001019387, Final residual = 7.298485e-11, No Iterations 223

Solve for region phiEA:

GAMGPCG:  Solving for phi, Initial residual = 0.0003411524, Final residual = 7.472966e-11, No Iterations 7

Solve for region phiEC:

GAMGPCG:  Solving for phi, Initial residual = 0.4495347, Final residual = 4.745873e-11, No Iterations 7

Solve for region phiI:

GAMG:  Solving for phi, Initial residual = 0.3476521, Final residual = 3.690274e-14, No Iterations 2

Map to cell 

Map air to Cell

Map fuel to Cell

Map electrolyte to Cell

Map interconnect to Cell

Map phiEA to Cell 

Map phiEC to Cell 

Map phiI to Cell 

Solving for temperature:

GAMGPBiCGStab:  Solving for T, Initial residual = 0.02912615, Final residual = 5.519091e-11, No Iterations 11
T: min = 961.2441, mean = 1084.717, max = 1093.744
ExecutionTime = 32.18 s



Time = 0.024

Region: air Courant Number mean: 1.983784 max: 2
Region: fuel Courant Number mean: 0.001993243 max: 0.118

Map from cell 

Map air from Cell

Map fuel from Cell

Map electrolyte from Cell

Map interconnect from Cell

Map phiEA from Cell 

Map phiEC from Cell 

Map phiI from Cell 

Nernst air: min = -0.676573, mean = -0.6671113, max = -0.5804497
Total current (A) at ccl: 0.6154446

Correct diffusivity for specie: O2

Nernst fuel: min = -1.756614, mean = -1.649835, max = -1.630321
Total current (A) at acl: 0.5067151

Correct diffusivity for specie: H2

ibar: 7693.057	voltage: 0.8721771

Solve for single phase flow:

Reading hRef
Calculating field g.h

Creating field dpdt

PIMPLE: iteration 1
DILUPBiCGStab:  Solving for O2, Initial residual = 0.009347123, Final residual = 6.188148e-10, No Iterations 25
Y: O2:0.1600203 -> 0.2300285
Constructing momentum equations
DICPCG:  Solving for p_rgh, Initial residual = 0.0002860834, Final residual = 2.314288e-07, No Iterations 209
DICPCG:  Solving for p_rgh, Initial residual = 0.000208973, Final residual = 1.992762e-07, No Iterations 206
DICPCG:  Solving for p_rgh, Initial residual = 0.0001592226, Final residual = 7.74271e-11, No Iterations 228

Solve for single phase flow:

Reading hRef
Calculating field g.h

Creating field dpdt

PIMPLE: iteration 1
DILUPBiCGStab:  Solving for H2, Initial residual = 0.01385423, Final residual = 9.459566e-12, No Iterations 163
Y: H2:0.1507093 -> 0.7831122
Constructing momentum equations
DICPCG:  Solving for p_rgh, Initial residual = 0.003843445, Final residual = 3.205844e-06, No Iterations 195
DICPCG:  Solving for p_rgh, Initial residual = 0.001266528, Final residual = 1.073766e-06, No Iterations 194
DICPCG:  Solving for p_rgh, Initial residual = 0.0008053465, Final residual = 9.836379e-11, No Iterations 221

Solve for region phiEA:

GAMGPCG:  Solving for phi, Initial residual = 0.000327428, Final residual = 6.869134e-11, No Iterations 7

Solve for region phiEC:

GAMGPCG:  Solving for phi, Initial residual = 0.4350385, Final residual = 4.593924e-11, No Iterations 7

Solve for region phiI:

GAMG:  Solving for phi, Initial residual = 0.3199266, Final residual = 3.583829e-14, No Iterations 2

Map to cell 

Map air to Cell

Map fuel to Cell

Map electrolyte to Cell

Map interconnect to Cell

Map phiEA to Cell 

Map phiEC to Cell 

Map phiI to Cell 

Solving for temperature:

GAMGPBiCGStab:  Solving for T, Initial residual = 0.02852603, Final residual = 9.165856e-11, No Iterations 11
T: min = 961.4248, mean = 1085.223, max = 1094.368
ExecutionTime = 33.49 s



Time = 0.025

Region: air Courant Number mean: 1.983784 max: 2
Region: fuel Courant Number mean: 0.001993243 max: 0.118

Map from cell 

Map air from Cell

Map fuel from Cell

Map electrolyte from Cell

Map interconnect from Cell

Map phiEA from Cell 

Map phiEC from Cell 

Map phiI from Cell 

Nernst air: min = -0.6770399, mean = -0.6674972, max = -0.5805844
Total current (A) at ccl: 0.6174714

Correct diffusivity for specie: O2

Nernst fuel: min = -1.756372, mean = -1.648972, max = -1.627358
Total current (A) at acl: 0.5185626

Correct diffusivity for specie: H2

ibar: 7718.392	voltage: 0.8691077

Solve for single phase flow:

Reading hRef
Calculating field g.h

Creating field dpdt

PIMPLE: iteration 1
DILUPBiCGStab:  Solving for O2, Initial residual = 0.008908756, Final residual = 7.09816e-10, No Iterations 23
Y: O2:0.1595609 -> 0.2297635
Constructing momentum equations
DICPCG:  Solving for p_rgh, Initial residual = 0.0002738932, Final residual = 2.539941e-07, No Iterations 206
DICPCG:  Solving for p_rgh, Initial residual = 0.0001826498, Final residual = 1.746256e-07, No Iterations 203
DICPCG:  Solving for p_rgh, Initial residual = 0.000135087, Final residual = 8.098478e-11, No Iterations 227

Solve for single phase flow:

Reading hRef
Calculating field g.h

Creating field dpdt

PIMPLE: iteration 1
DILUPBiCGStab:  Solving for H2, Initial residual = 0.01175941, Final residual = 9.404106e-12, No Iterations 163
Y: H2:0.1460542 -> 0.7811401
Constructing momentum equations
DICPCG:  Solving for p_rgh, Initial residual = 0.002920882, Final residual = 2.570777e-06, No Iterations 195
DICPCG:  Solving for p_rgh, Initial residual = 0.0009734105, Final residual = 7.762186e-07, No Iterations 193
DICPCG:  Solving for p_rgh, Initial residual = 0.0006258094, Final residual = 8.043212e-11, No Iterations 221

Solve for region phiEA:

GAMGPCG:  Solving for phi, Initial residual = 0.0002970026, Final residual = 6.234569e-11, No Iterations 7

Solve for region phiEC:

GAMGPCG:  Solving for phi, Initial residual = 0.4134058, Final residual = 4.368905e-11, No Iterations 7

Solve for region phiI:

GAMG:  Solving for phi, Initial residual = 0.2890187, Final residual = 3.569735e-14, No Iterations 2

Map to cell 

Map air to Cell

Map fuel to Cell

Map electrolyte to Cell

Map interconnect to Cell

Map phiEA to Cell 

Map phiEC to Cell 

Map phiI to Cell 

Solving for temperature:

GAMGPBiCGStab:  Solving for T, Initial residual = 0.02764569, Final residual = 6.710206e-11, No Iterations 11
T: min = 961.6054, mean = 1085.721, max = 1095.002
ExecutionTime = 34.81 s



Time = 0.026

Region: air Courant Number mean: 1.983784 max: 2
Region: fuel Courant Number mean: 0.001993243 max: 0.118

Map from cell 

Map air from Cell

Map fuel from Cell

Map electrolyte from Cell

Map interconnect from Cell

Map phiEA from Cell 

Map phiEC from Cell 

Map phiI from Cell 

Nernst air: min = -0.6775206, mean = -0.6678796, max = -0.5806927
Total current (A) at ccl: 0.619464

Correct diffusivity for specie: O2

Nernst fuel: min = -1.756022, mean = -1.648287, max = -1.625013
Total current (A) at acl: 0.5305754

Correct diffusivity for specie: H2

ibar: 7743.3	voltage: 0.8662916

Solve for single phase flow:

Reading hRef
Calculating field g.h

Creating field dpdt

PIMPLE: iteration 1
DILUPBiCGStab:  Solving for O2, Initial residual = 0.009113579, Final residual = 3.375701e-10, No Iterations 25
Y: O2:0.159112 -> 0.2300285
Constructing momentum equations
DICPCG:  Solving for p_rgh, Initial residual = 0.0002679517, Final residual = 1.914003e-07, No Iterations 208
DICPCG:  Solving for p_rgh, Initial residual = 0.0001606942, Final residual = 1.288003e-07, No Iterations 207
DICPCG:  Solving for p_rgh, Initial residual = 0.0001226266, Final residual = 6.328481e-11, No Iterations 228

Solve for single phase flow:

Reading hRef
Calculating field g.h

Creating field dpdt

PIMPLE: iteration 1
DILUPBiCGStab:  Solving for H2, Initial residual = 0.01073111, Final residual = 4.088439e-12, No Iterations 165
Y: H2:0.1427832 -> 0.7793983
Constructing momentum equations
DICPCG:  Solving for p_rgh, Initial residual = 0.002160905, Final residual = 1.646225e-06, No Iterations 194
DICPCG:  Solving for p_rgh, Initial residual = 0.0007388654, Final residual = 6.322502e-07, No Iterations 189
DICPCG:  Solving for p_rgh, Initial residual = 0.0004801043, Final residual = 8.520759e-11, No Iterations 220

Solve for region phiEA:

GAMGPCG:  Solving for phi, Initial residual = 0.000253862, Final residual = 5.692014e-11, No Iterations 7

Solve for region phiEC:

GAMGPCG:  Solving for phi, Initial residual = 0.3903503, Final residual = 4.123525e-11, No Iterations 7

Solve for region phiI:

GAMG:  Solving for phi, Initial residual = 0.2576057, Final residual = 3.586041e-14, No Iterations 2

Map to cell 

Map air to Cell

Map fuel to Cell

Map electrolyte to Cell

Map interconnect to Cell

Map phiEA to Cell 

Map phiEC to Cell 

Map phiI to Cell 

Solving for temperature:

GAMGPBiCGStab:  Solving for T, Initial residual = 0.02687942, Final residual = 1.922311e-11, No Iterations 13
T: min = 961.7864, mean = 1086.213, max = 1095.643
ExecutionTime = 36.15 s



Time = 0.027

Region: air Courant Number mean: 1.983784 max: 2
Region: fuel Courant Number mean: 0.001993243 max: 0.118

Map from cell 

Map air from Cell

Map fuel from Cell

Map electrolyte from Cell

Map interconnect from Cell

Map phiEA from Cell 

Map phiEC from Cell 

Map phiI from Cell 

Nernst air: min = -0.6780102, mean = -0.6682563, max = -0.5808248
Total current (A) at ccl: 0.6212139

Correct diffusivity for specie: O2

Nernst fuel: min = -1.755645, mean = -1.647668, max = -1.623313
Total current (A) at acl: 0.5414527

Correct diffusivity for specie: H2

ibar: 7765.173	voltage: 0.8637246

Solve for single phase flow:

Reading hRef
Calculating field g.h

Creating field dpdt

PIMPLE: iteration 1
DILUPBiCGStab:  Solving for O2, Initial residual = 0.008485222, Final residual = 8.060572e-10, No Iterations 23
Y: O2:0.1586498 -> 0.2297606
Constructing momentum equations
DICPCG:  Solving for p_rgh, Initial residual = 0.0002290479, Final residual = 1.669603e-07, No Iterations 207
DICPCG:  Solving for p_rgh, Initial residual = 0.0001378575, Final residual = 1.252399e-07, No Iterations 203
DICPCG:  Solving for p_rgh, Initial residual = 0.0001022733, Final residual = 9.024703e-11, No Iterations 226

Solve for single phase flow:

Reading hRef
Calculating field g.h

Creating field dpdt

PIMPLE: iteration 1
DILUPBiCGStab:  Solving for H2, Initial residual = 0.01055833, Final residual = 7.451162e-12, No Iterations 164
Y: H2:0.1403738 -> 0.7779394
Constructing momentum equations
DICPCG:  Solving for p_rgh, Initial residual = 0.001585087, Final residual = 1.406389e-06, No Iterations 185
DICPCG:  Solving for p_rgh, Initial residual = 0.0005421235, Final residual = 5.132701e-07, No Iterations 190
DICPCG:  Solving for p_rgh, Initial residual = 0.0003551585, Final residual = 6.393666e-11, No Iterations 220

Solve for region phiEA:

GAMGPCG:  Solving for phi, Initial residual = 0.0002053524, Final residual = 5.023994e-11, No Iterations 7

Solve for region phiEC:

GAMGPCG:  Solving for phi, Initial residual = 0.368616, Final residual = 3.895001e-11, No Iterations 7

Solve for region phiI:

GAMG:  Solving for phi, Initial residual = 0.2285367, Final residual = 3.504299e-14, No Iterations 2

Map to cell 

Map air to Cell

Map fuel to Cell

Map electrolyte to Cell

Map interconnect to Cell

Map phiEA to Cell 

Map phiEC to Cell 

Map phiI to Cell 

Solving for temperature:

GAMGPBiCGStab:  Solving for T, Initial residual = 0.02618474, Final residual = 5.252878e-11, No Iterations 10
T: min = 961.9701, mean = 1086.696, max = 1096.263
ExecutionTime = 37.41 s



Time = 0.028

Region: air Courant Number mean: 1.983784 max: 2
Region: fuel Courant Number mean: 0.001993243 max: 0.118

Map from cell 

Map air from Cell

Map fuel from Cell

Map electrolyte from Cell

Map interconnect from Cell

Map phiEA from Cell 

Map phiEC from Cell 

Map phiI from Cell 

Nernst air: min = -0.6785012, mean = -0.6686285, max = -0.5809331
Total current (A) at ccl: 0.6227147

Correct diffusivity for specie: O2

Nernst fuel: min = -1.7553, mean = -1.647039, max = -1.62215
Total current (A) at acl: 0.5504575

Correct diffusivity for specie: H2

ibar: 7783.934	voltage: 0.8613764

Solve for single phase flow:

Reading hRef
Calculating field g.h

Creating field dpdt

PIMPLE: iteration 1
DILUPBiCGStab:  Solving for O2, Initial residual = 0.008527318, Final residual = 7.859403e-10, No Iterations 24
Y: O2:0.1582059 -> 0.2300288
Constructing momentum equations
DICPCG:  Solving for p_rgh, Initial residual = 0.0002142508, Final residual = 1.785817e-07, No Iterations 207
DICPCG:  Solving for p_rgh, Initial residual = 0.000127229, Final residual = 9.344769e-08, No Iterations 207
DICPCG:  Solving for p_rgh, Initial residual = 9.696611e-05, Final residual = 8.358417e-11, No Iterations 227

Solve for single phase flow:

Reading hRef
Calculating field g.h

Creating field dpdt

PIMPLE: iteration 1
DILUPBiCGStab:  Solving for H2, Initial residual = 0.01074465, Final residual = 6.089541e-12, No Iterations 165
Y: H2:0.1383313 -> 0.7767536
Constructing momentum equations
DICPCG:  Solving for p_rgh, Initial residual = 0.001216725, Final residual = 1.009854e-06, No Iterations 193
DICPCG:  Solving for p_rgh, Initial residual = 0.0003840538, Final residual = 3.377306e-07, No Iterations 191
DICPCG:  Solving for p_rgh, Initial residual = 0.0002521843, Final residual = 7.843668e-11, No Iterations 219

Solve for region phiEA:

GAMGPCG:  Solving for phi, Initial residual = 0.0001600832, Final residual = 4.135195e-11, No Iterations 7

Solve for region phiEC:

GAMGPCG:  Solving for phi, Initial residual = 0.3488085, Final residual = 3.683575e-11, No Iterations 7

Solve for region phiI:

GAMG:  Solving for phi, Initial residual = 0.2044895, Final residual = 3.41397e-14, No Iterations 2

Map to cell 

Map air to Cell

Map fuel to Cell

Map electrolyte to Cell

Map interconnect to Cell

[...]
Y: O2:0.1504949 -> 0.229594
Constructing momentum equations
DICPCG:  Solving for p_rgh, Initial residual = 4.506657e-06, Final residual = 3.520776e-09, No Iterations 212
DICPCG:  Solving for p_rgh, Initial residual = 1.882234e-06, Final residual = 1.251964e-09, No Iterations 211
DICPCG:  Solving for p_rgh, Initial residual = 1.103055e-06, Final residual = 5.765653e-11, No Iterations 218

Solve for single phase flow:

Reading hRef
Calculating field g.h

Creating field dpdt

PIMPLE: iteration 1
DILUPBiCGStab:  Solving for H2, Initial residual = 7.944847e-06, Final residual = 7.10276e-12, No Iterations 134
Y: H2:0.0833434 -> 0.8046476
Constructing momentum equations
DICPCG:  Solving for p_rgh, Initial residual = 2.00999e-06, Final residual = 1.5195e-09, No Iterations 197
DICPCG:  Solving for p_rgh, Initial residual = 7.647107e-07, Final residual = 7.288223e-10, No Iterations 191
DICPCG:  Solving for p_rgh, Initial residual = 4.795213e-07, Final residual = 7.064109e-11, No Iterations 199

Solve for region phiEA:

GAMGPCG:  Solving for phi, Initial residual = 2.039166e-07, Final residual = 6.780076e-11, No Iterations 4

Solve for region phiEC:

GAMGPCG:  Solving for phi, Initial residual = 0.00274791, Final residual = 5.828575e-12, No Iterations 6

Solve for region phiI:

GAMG:  Solving for phi, Initial residual = 0.000220228, Final residual = 1.429833e-14, No Iterations 1

Map to cell 

Map air to Cell

Map fuel to Cell

Map electrolyte to Cell

Map interconnect to Cell

Map phiEA to Cell 

Map phiEC to Cell 

Map phiI to Cell 

Solving for temperature:

GAMGPBiCGStab:  Solving for T, Initial residual = 0.0008065517, Final residual = 4.148184e-11, No Iterations 8
T: min = 1067.858, mean = 1300.369, max = 1313.323
ExecutionTime = 1800.55 s



Time = 1.494

Region: air Courant Number mean: 1.983784 max: 2
Region: fuel Courant Number mean: 0.001993243 max: 0.118

Map from cell 

Map air from Cell

Map fuel from Cell

Map electrolyte from Cell

Map interconnect from Cell

Map phiEA from Cell 

Map phiEC from Cell 

Map phiI from Cell 

Nernst air: min = -0.8304125, mean = -0.8166909, max = -0.6516541
Total current (A) at ccl: 0.6399134

Correct diffusivity for specie: O2

Nernst fuel: min = -1.867899, mean = -1.714476, max = -1.668891
Total current (A) at acl: 0.6402248

Correct diffusivity for specie: H2

ibar: 7998.918	voltage: 0.7110581

Solve for single phase flow:

Reading hRef
Calculating field g.h

Creating field dpdt

PIMPLE: iteration 1
DILUPBiCGStab:  Solving for O2, Initial residual = 0.0003668277, Final residual = 4.565479e-10, No Iterations 22
Y: O2:0.1504971 -> 0.2299897
Constructing momentum equations
DICPCG:  Solving for p_rgh, Initial residual = 5.748151e-06, Final residual = 4.523815e-09, No Iterations 213
DICPCG:  Solving for p_rgh, Initial residual = 2.264712e-06, Final residual = 1.508902e-09, No Iterations 211
DICPCG:  Solving for p_rgh, Initial residual = 1.325575e-06, Final residual = 7.306517e-11, No Iterations 218

Solve for single phase flow:

Reading hRef
Calculating field g.h

Creating field dpdt

PIMPLE: iteration 1
DILUPBiCGStab:  Solving for H2, Initial residual = 7.923719e-06, Final residual = 8.740478e-12, No Iterations 138
Y: H2:0.08334286 -> 0.8046511
Constructing momentum equations
DICPCG:  Solving for p_rgh, Initial residual = 2.025126e-06, Final residual = 1.349061e-09, No Iterations 197
DICPCG:  Solving for p_rgh, Initial residual = 7.529326e-07, Final residual = 7.308336e-10, No Iterations 191
DICPCG:  Solving for p_rgh, Initial residual = 4.725002e-07, Final residual = 7.046905e-11, No Iterations 199

Solve for region phiEA:

GAMGPCG:  Solving for phi, Initial residual = 2.042698e-07, Final residual = 6.793357e-11, No Iterations 4

Solve for region phiEC:

GAMGPCG:  Solving for phi, Initial residual = 0.002596893, Final residual = 5.798809e-12, No Iterations 6

Solve for region phiI:

GAMG:  Solving for phi, Initial residual = 0.0002162859, Final residual = 1.423456e-14, No Iterations 1

Map to cell 

Map air to Cell

Map fuel to Cell

Map electrolyte to Cell

Map interconnect to Cell

Map phiEA to Cell 

Map phiEC to Cell 

Map phiI to Cell 

Solving for temperature:

GAMGPBiCGStab:  Solving for T, Initial residual = 0.0008055862, Final residual = 1.910688e-11, No Iterations 9
T: min = 1067.869, mean = 1300.391, max = 1313.345
ExecutionTime = 1801.56 s



Time = 1.495

Region: air Courant Number mean: 1.983784 max: 2
Region: fuel Courant Number mean: 0.001993243 max: 0.118

Map from cell 

Map air from Cell

Map fuel from Cell

Map electrolyte from Cell

Map interconnect from Cell

Map phiEA from Cell 

Map phiEC from Cell 

Map phiI from Cell 

Nernst air: min = -0.8304279, mean = -0.8167065, max = -0.651681
Total current (A) at ccl: 0.6399087

Correct diffusivity for specie: O2

Nernst fuel: min = -1.867912, mean = -1.714486, max = -1.668898
Total current (A) at acl: 0.6402245

Correct diffusivity for specie: H2

ibar: 7998.859	voltage: 0.7110473

Solve for single phase flow:

Reading hRef
Calculating field g.h

Creating field dpdt

PIMPLE: iteration 1
DILUPBiCGStab:  Solving for O2, Initial residual = 0.0004499162, Final residual = 6.991264e-10, No Iterations 22
Y: O2:0.1504968 -> 0.229594
Constructing momentum equations
DICPCG:  Solving for p_rgh, Initial residual = 4.50337e-06, Final residual = 3.525964e-09, No Iterations 212
DICPCG:  Solving for p_rgh, Initial residual = 1.881367e-06, Final residual = 1.25089e-09, No Iterations 211
DICPCG:  Solving for p_rgh, Initial residual = 1.102231e-06, Final residual = 5.762542e-11, No Iterations 218

Solve for single phase flow:

Reading hRef
Calculating field g.h

Creating field dpdt

PIMPLE: iteration 1
DILUPBiCGStab:  Solving for H2, Initial residual = 7.920023e-06, Final residual = 9.501776e-12, No Iterations 134
Y: H2:0.08334232 -> 0.8046546
Constructing momentum equations
DICPCG:  Solving for p_rgh, Initial residual = 2.002586e-06, Final residual = 1.514415e-09, No Iterations 197
DICPCG:  Solving for p_rgh, Initial residual = 7.619699e-07, Final residual = 7.275212e-10, No Iterations 191
DICPCG:  Solving for p_rgh, Initial residual = 4.777853e-07, Final residual = 7.045017e-11, No Iterations 199

Solve for region phiEA:

GAMGPCG:  Solving for phi, Initial residual = 2.033463e-07, Final residual = 6.758983e-11, No Iterations 4

Solve for region phiEC:

GAMGPCG:  Solving for phi, Initial residual = 0.002737138, Final residual = 5.806192e-12, No Iterations 6

Solve for region phiI:

GAMG:  Solving for phi, Initial residual = 0.0002193252, Final residual = 1.420409e-14, No Iterations 1

Map to cell 

Map air to Cell

Map fuel to Cell

Map electrolyte to Cell

Map interconnect to Cell

Map phiEA to Cell 

Map phiEC to Cell 

Map phiI to Cell 

Solving for temperature:

GAMGPBiCGStab:  Solving for T, Initial residual = 0.0008033342, Final residual = 4.1515e-11, No Iterations 8
T: min = 1067.881, mean = 1300.413, max = 1313.367
ExecutionTime = 1802.53 s



Time = 1.496

Region: air Courant Number mean: 1.983784 max: 2
Region: fuel Courant Number mean: 0.001993243 max: 0.118

Map from cell 

Map air from Cell

Map fuel from Cell

Map electrolyte from Cell

Map interconnect from Cell

Map phiEA from Cell 

Map phiEC from Cell 

Map phiI from Cell 

Nernst air: min = -0.8304428, mean = -0.8167219, max = -0.65167
Total current (A) at ccl: 0.6399138

Correct diffusivity for specie: O2

Nernst fuel: min = -1.867925, mean = -1.714495, max = -1.668905
Total current (A) at acl: 0.6402239

Correct diffusivity for specie: H2

ibar: 7998.922	voltage: 0.7110358

Solve for single phase flow:

Reading hRef
Calculating field g.h

Creating field dpdt

PIMPLE: iteration 1
DILUPBiCGStab:  Solving for O2, Initial residual = 0.0003667806, Final residual = 4.548539e-10, No Iterations 22
Y: O2:0.150499 -> 0.2299897
Constructing momentum equations
DICPCG:  Solving for p_rgh, Initial residual = 5.741352e-06, Final residual = 4.521691e-09, No Iterations 213
DICPCG:  Solving for p_rgh, Initial residual = 2.262368e-06, Final residual = 1.507644e-09, No Iterations 211
DICPCG:  Solving for p_rgh, Initial residual = 1.323575e-06, Final residual = 7.303547e-11, No Iterations 218

Solve for single phase flow:

Reading hRef
Calculating field g.h

Creating field dpdt

PIMPLE: iteration 1
DILUPBiCGStab:  Solving for H2, Initial residual = 7.899093e-06, Final residual = 4.901139e-12, No Iterations 132
Y: H2:0.08334179 -> 0.8046581
Constructing momentum equations
DICPCG:  Solving for p_rgh, Initial residual = 2.017739e-06, Final residual = 1.343668e-09, No Iterations 197
DICPCG:  Solving for p_rgh, Initial residual = 7.502062e-07, Final residual = 7.267922e-10, No Iterations 191
DICPCG:  Solving for p_rgh, Initial residual = 4.707907e-07, Final residual = 7.017543e-11, No Iterations 199

Solve for region phiEA:

GAMGPCG:  Solving for phi, Initial residual = 2.037032e-07, Final residual = 6.77237e-11, No Iterations 4

Solve for region phiEC:

GAMGPCG:  Solving for phi, Initial residual = 0.002586133, Final residual = 5.776266e-12, No Iterations 6

Solve for region phiI:

GAMG:  Solving for phi, Initial residual = 0.000215386, Final residual = 1.440451e-14, No Iterations 1

Map to cell 

Map air to Cell

Map fuel to Cell

Map electrolyte to Cell

Map interconnect to Cell

Map phiEA to Cell 

Map phiEC to Cell 

Map phiI to Cell 

Solving for temperature:

GAMGPBiCGStab:  Solving for T, Initial residual = 0.0008023753, Final residual = 1.900049e-11, No Iterations 9
T: min = 1067.892, mean = 1300.435, max = 1313.389
ExecutionTime = 1803.49 s



Time = 1.497

Region: air Courant Number mean: 1.983784 max: 2
Region: fuel Courant Number mean: 0.001993243 max: 0.118

Map from cell 

Map air from Cell

Map fuel from Cell

Map electrolyte from Cell

Map interconnect from Cell

Map phiEA from Cell 

Map phiEC from Cell 

Map phiI from Cell 

Nernst air: min = -0.8304581, mean = -0.8167374, max = -0.6516969
Total current (A) at ccl: 0.6399091

Correct diffusivity for specie: O2

Nernst fuel: min = -1.867937, mean = -1.714505, max = -1.668913
Total current (A) at acl: 0.6402237

Correct diffusivity for specie: H2

ibar: 7998.864	voltage: 0.7110251

Solve for single phase flow:

Reading hRef
Calculating field g.h

Creating field dpdt

PIMPLE: iteration 1
DILUPBiCGStab:  Solving for O2, Initial residual = 0.0004498719, Final residual = 7.020414e-10, No Iterations 22
Y: O2:0.1504987 -> 0.2295939
Constructing momentum equations
DICPCG:  Solving for p_rgh, Initial residual = 4.500086e-06, Final residual = 3.531291e-09, No Iterations 212
DICPCG:  Solving for p_rgh, Initial residual = 1.880551e-06, Final residual = 1.249863e-09, No Iterations 211
DICPCG:  Solving for p_rgh, Initial residual = 1.101389e-06, Final residual = 5.76027e-11, No Iterations 218

Solve for single phase flow:

Reading hRef
Calculating field g.h

Creating field dpdt

PIMPLE: iteration 1
DILUPBiCGStab:  Solving for H2, Initial residual = 7.895483e-06, Final residual = 5.95353e-12, No Iterations 133
Y: H2:0.08334125 -> 0.8046616
Constructing momentum equations
DICPCG:  Solving for p_rgh, Initial residual = 1.995162e-06, Final residual = 1.509234e-09, No Iterations 197
DICPCG:  Solving for p_rgh, Initial residual = 7.592205e-07, Final residual = 7.239578e-10, No Iterations 191
DICPCG:  Solving for p_rgh, Initial residual = 4.76058e-07, Final residual = 7.025941e-11, No Iterations 199

Solve for region phiEA:

GAMGPCG:  Solving for phi, Initial residual = 2.027778e-07, Final residual = 6.737941e-11, No Iterations 4

Solve for region phiEC:

GAMGPCG:  Solving for phi, Initial residual = 0.00272641, Final residual = 5.783905e-12, No Iterations 6

Solve for region phiI:

GAMG:  Solving for phi, Initial residual = 0.0002184266, Final residual = 1.41204e-14, No Iterations 1

Map to cell 

Map air to Cell

Map fuel to Cell

Map electrolyte to Cell

Map interconnect to Cell

Map phiEA to Cell 

Map phiEC to Cell 

Map phiI to Cell 

Solving for temperature:

GAMGPBiCGStab:  Solving for T, Initial residual = 0.0008001302, Final residual = 4.163508e-11, No Iterations 8
T: min = 1067.905, mean = 1300.457, max = 1313.41
ExecutionTime = 1804.36 s



Time = 1.498

Region: air Courant Number mean: 1.983784 max: 2
Region: fuel Courant Number mean: 0.001993243 max: 0.118

Map from cell 

Map air from Cell

Map fuel from Cell

Map electrolyte from Cell

Map interconnect from Cell

Map phiEA from Cell 

Map phiEC from Cell 

Map phiI from Cell 

Nernst air: min = -0.830473, mean = -0.8167527, max = -0.6516859
Total current (A) at ccl: 0.6399141

Correct diffusivity for specie: O2

Nernst fuel: min = -1.86795, mean = -1.714514, max = -1.66892
Total current (A) at acl: 0.6402231

Correct diffusivity for specie: H2

ibar: 7998.927	voltage: 0.7110137

Solve for single phase flow:

Reading hRef
Calculating field g.h

Creating field dpdt

PIMPLE: iteration 1
DILUPBiCGStab:  Solving for O2, Initial residual = 0.0003667337, Final residual = 4.528594e-10, No Iterations 22
Y: O2:0.1505008 -> 0.2299897
Constructing momentum equations
DICPCG:  Solving for p_rgh, Initial residual = 5.734532e-06, Final residual = 4.519563e-09, No Iterations 213
DICPCG:  Solving for p_rgh, Initial residual = 2.260031e-06, Final residual = 1.506356e-09, No Iterations 211
DICPCG:  Solving for p_rgh, Initial residual = 1.32158e-06, Final residual = 7.300414e-11, No Iterations 218

Solve for single phase flow:

Reading hRef
Calculating field g.h

Creating field dpdt

PIMPLE: iteration 1
DILUPBiCGStab:  Solving for H2, Initial residual = 7.874404e-06, Final residual = 9.309878e-12, No Iterations 141
Y: H2:0.08334071 -> 0.8046651
Constructing momentum equations
DICPCG:  Solving for p_rgh, Initial residual = 2.010343e-06, Final residual = 1.338984e-09, No Iterations 197
DICPCG:  Solving for p_rgh, Initial residual = 7.474394e-07, Final residual = 7.24081e-10, No Iterations 191
DICPCG:  Solving for p_rgh, Initial residual = 4.690642e-07, Final residual = 6.992586e-11, No Iterations 199

Solve for region phiEA:

GAMGPCG:  Solving for phi, Initial residual = 2.031383e-07, Final residual = 6.751441e-11, No Iterations 4

Solve for region phiEC:

GAMGPCG:  Solving for phi, Initial residual = 0.002575417, Final residual = 5.75382e-12, No Iterations 6

Solve for region phiI:

GAMG:  Solving for phi, Initial residual = 0.0002144903, Final residual = 1.421585e-14, No Iterations 1

Map to cell 

Map air to Cell

Map fuel to Cell

Map electrolyte to Cell

Map interconnect to Cell

Map phiEA to Cell 

Map phiEC to Cell 

Map phiI to Cell 

Solving for temperature:

GAMGPBiCGStab:  Solving for T, Initial residual = 0.000799178, Final residual = 1.889507e-11, No Iterations 9
T: min = 1067.916, mean = 1300.479, max = 1313.432
ExecutionTime = 1805.22 s



Time = 1.499

Region: air Courant Number mean: 1.983784 max: 2
Region: fuel Courant Number mean: 0.001993243 max: 0.118

Map from cell 

Map air from Cell

Map fuel from Cell

Map electrolyte from Cell

Map interconnect from Cell

Map phiEA from Cell 

Map phiEC from Cell 

Map phiI from Cell 

Nernst air: min = -0.8304882, mean = -0.8167682, max = -0.6517128
Total current (A) at ccl: 0.6399094

Correct diffusivity for specie: O2

Nernst fuel: min = -1.867962, mean = -1.714523, max = -1.668927
Total current (A) at acl: 0.6402228

Correct diffusivity for specie: H2

ibar: 7998.868	voltage: 0.711003

Solve for single phase flow:

Reading hRef
Calculating field g.h

Creating field dpdt

PIMPLE: iteration 1
DILUPBiCGStab:  Solving for O2, Initial residual = 0.0004498278, Final residual = 7.050867e-10, No Iterations 22
Y: O2:0.1505006 -> 0.2295939
Constructing momentum equations
DICPCG:  Solving for p_rgh, Initial residual = 4.496865e-06, Final residual = 3.536431e-09, No Iterations 212
DICPCG:  Solving for p_rgh, Initial residual = 1.879739e-06, Final residual = 1.248634e-09, No Iterations 211
DICPCG:  Solving for p_rgh, Initial residual = 1.10056e-06, Final residual = 5.758197e-11, No Iterations 218

Solve for single phase flow:

Reading hRef
Calculating field g.h

Creating field dpdt

PIMPLE: iteration 1
DILUPBiCGStab:  Solving for H2, Initial residual = 7.870779e-06, Final residual = 9.389153e-12, No Iterations 128
Y: H2:0.08334017 -> 0.8046686
Constructing momentum equations
DICPCG:  Solving for p_rgh, Initial residual = 1.987787e-06, Final residual = 1.504298e-09, No Iterations 197
DICPCG:  Solving for p_rgh, Initial residual = 7.56464e-07, Final residual = 7.205314e-10, No Iterations 191
DICPCG:  Solving for p_rgh, Initial residual = 4.74346e-07, Final residual = 6.988841e-11, No Iterations 199

Solve for region phiEA:

GAMGPCG:  Solving for phi, Initial residual = 2.022113e-07, Final residual = 6.71698e-11, No Iterations 4

Solve for region phiEC:

GAMGPCG:  Solving for phi, Initial residual = 0.002715727, Final residual = 5.761716e-12, No Iterations 6

Solve for region phiI:

GAMG:  Solving for phi, Initial residual = 0.0002175321, Final residual = 1.420027e-14, No Iterations 1

Map to cell 

Map air to Cell

Map fuel to Cell

Map electrolyte to Cell

Map interconnect to Cell

Map phiEA to Cell 

Map phiEC to Cell 

Map phiI to Cell 

Solving for temperature:

GAMGPBiCGStab:  Solving for T, Initial residual = 0.0007969397, Final residual = 4.186623e-11, No Iterations 8
T: min = 1067.928, mean = 1300.501, max = 1313.453
ExecutionTime = 1806.1 s



Time = 1.5

Region: air Courant Number mean: 1.983784 max: 2
Region: fuel Courant Number mean: 0.001993243 max: 0.118

Map from cell 

Map air from Cell

Map fuel from Cell

Map electrolyte from Cell

Map interconnect from Cell

Map phiEA from Cell 

Map phiEC from Cell 

Map phiI from Cell 

Nernst air: min = -0.830503, mean = -0.8167834, max = -0.6517017
Total current (A) at ccl: 0.6399145

Correct diffusivity for specie: O2

Nernst fuel: min = -1.867975, mean = -1.714533, max = -1.668935
Total current (A) at acl: 0.6402223

Correct diffusivity for specie: H2

ibar: 7998.931	voltage: 0.7109917

Solve for single phase flow:

Reading hRef
Calculating field g.h

Creating field dpdt

PIMPLE: iteration 1
DILUPBiCGStab:  Solving for O2, Initial residual = 0.000366687, Final residual = 4.512518e-10, No Iterations 22
Y: O2:0.1505027 -> 0.2299897
Constructing momentum equations
DICPCG:  Solving for p_rgh, Initial residual = 5.727758e-06, Final residual = 4.517546e-09, No Iterations 213
DICPCG:  Solving for p_rgh, Initial residual = 2.257735e-06, Final residual = 1.50505e-09, No Iterations 211
DICPCG:  Solving for p_rgh, Initial residual = 1.319538e-06, Final residual = 7.296953e-11, No Iterations 218

Solve for single phase flow:

Reading hRef
Calculating field g.h

Creating field dpdt

PIMPLE: iteration 1
DILUPBiCGStab:  Solving for H2, Initial residual = 7.849913e-06, Final residual = 6.793038e-12, No Iterations 140
Y: H2:0.08333964 -> 0.8046721
Constructing momentum equations
DICPCG:  Solving for p_rgh, Initial residual = 2.00299e-06, Final residual = 1.333915e-09, No Iterations 197
DICPCG:  Solving for p_rgh, Initial residual = 7.447306e-07, Final residual = 7.226094e-10, No Iterations 191
DICPCG:  Solving for p_rgh, Initial residual = 4.673492e-07, Final residual = 6.974639e-11, No Iterations 199

Solve for region phiEA:

GAMGPCG:  Solving for phi, Initial residual = 2.025751e-07, Final residual = 6.730566e-11, No Iterations 4

Solve for region phiEC:

GAMGPCG:  Solving for phi, Initial residual = 0.002564745, Final residual = 5.731471e-12, No Iterations 6

Solve for region phiI:

GAMG:  Solving for phi, Initial residual = 0.0002135986, Final residual = 1.42887e-14, No Iterations 1

Map to cell 

Map air to Cell

Map fuel to Cell

Map electrolyte to Cell

Map interconnect to Cell

Map phiEA to Cell 

Map phiEC to Cell 

Map phiI to Cell 

Solving for temperature:

GAMGPBiCGStab:  Solving for T, Initial residual = 0.0007959941, Final residual = 1.879054e-11, No Iterations 9
T: min = 1067.939, mean = 1300.523, max = 1313.475
ExecutionTime = 1807.62 s


End

