/*---------------------------------------------------------------------------*\
| =========                 |                                                 |
| \\      /  F ield         | OpenFOAM: The Open Source CFD Toolbox           |
|  \\    /   O peration     | Version:  2306                                  |
|   \\  /    A nd           | Website:  www.openfoam.com                      |
|    \\/     M anipulation  |                                                 |
\*---------------------------------------------------------------------------*/
Build  : _fbf00d6bf2-20230626 OPENFOAM=2306 version=v2306
Arch   : "LSB;label=32;scalar=64"
Exec   : openFuelCell
Date   : Nov 15 2024
Time   : 16:05:36
Host   : LAPTOP-5B06C84A
PID    : 33030
I/O    : uncollated
Case   : /home/catalina/OpenFOAM/openFuelCell2/run/SOFC
nProcs : 1
trapFpe: Floating point exception trapping enabled (FOAM_SIGFPE).
fileModificationChecking : Monitoring run-time modified files using timeStampMaster (fileModificationSkew 5, maxFileModificationPolls 20)
allowSystemOperations : Allowing user-supplied system call operations

// * * * * * * * * * * * * * * * * * * * * * * * * * * * * * * * * * * * * * //
Create time

Create mesh for time = 0

Creating fuel cell system


Reading g
Get cell properties from cellProperties


Creating regions: 
Creating air
Selecting regionType: fluid
Get region properties from regionProperties

Selecting phaseSystemType for region air: singlePhaseSystem
Creating phaseSystem from regionProperties

Creating porous model list from porousZones

Porosity region cathode:
    selecting model: DarcyForchheimer
    creating porous zone: cathode
Porosity region mpl:
    selecting model: DarcyForchheimer
    creating porous zone: mpl
Porosity region ccl:
    selecting model: DarcyForchheimer
    creating porous zone: ccl
Selecting phaseModel for air: reactingPhaseModel
Selecting thermodynamics package 
{
    type            heRhoThermo;
    mixture         multiComponentMixture;
    transport       sutherland;
    thermo          janaf;
    equationOfState perfectGas;
    specie          specie;
    energy          sensibleInternalEnergy;
}

Calculating face flux field phi
Selecting turbulence model type laminar
Selecting laminar stress model Stokes
Selecting combustion model electroChemicalReaction
Selecting saturationModel: ArdenBuck
Selecting activationOverpotentialModel: ButlerVolmer<heRhoThermo<multiComponentMixture<sutherland<janaf<perfectGas<specie>>,sensibleInternalEnergy>>>>
Selecting diffusivity model binaryFSG
Selecting diffusivity model porousFSG
Selecting diffusivity model porousFSG
Selecting diffusivity model porousFSG
No MRF models present


PIMPLE: Operating solver in PISO mode

Creating fuel
Selecting regionType: fluid
Get region properties from regionProperties

Selecting phaseSystemType for region fuel: singlePhaseSystem
Creating phaseSystem from regionProperties

Creating porous model list from porousZones

Porosity region anode:
    selecting model: DarcyForchheimer
    creating porous zone: anode
Porosity region mpl:
    selecting model: DarcyForchheimer
    creating porous zone: mpl
Porosity region acl:
    selecting model: DarcyForchheimer
    creating porous zone: acl
Selecting phaseModel for fuel: reactingPhaseModel
Selecting thermodynamics package 
{
    type            heRhoThermo;
    mixture         multiComponentMixture;
    transport       sutherland;
    thermo          janaf;
    equationOfState perfectGas;
    specie          specie;
    energy          sensibleInternalEnergy;
}

Calculating face flux field phi
Selecting turbulence model type laminar
Selecting laminar stress model Stokes
Selecting combustion model electroChemicalReaction
Selecting saturationModel: ArdenBuck
Selecting activationOverpotentialModel: ButlerVolmer<heRhoThermo<multiComponentMixture<sutherland<janaf<perfectGas<specie>>,sensibleInternalEnergy>>>>
Selecting diffusivity model binaryFSG
Selecting diffusivity model porousFSG
Selecting diffusivity model porousFSG
Selecting diffusivity model porousFSG
No MRF models present


PIMPLE: Operating solver in PISO mode

Creating electrolyte
Selecting regionType: solid
Get region properties from regionProperties

Selecting thermodynamics package 
{
    type            heSolidThermo;
    mixture         pureMixture;
    transport       constIso;
    thermo          hConst;
    equationOfState rhoConst;
    specie          specie;
    energy          sensibleEnthalpy;
}

Radiation model not active: radiationProperties not found
Selecting radiationModel none
Creating interconnect
Selecting regionType: solid
Get region properties from regionProperties

Selecting thermodynamics package 
{
    type            heSolidThermo;
    mixture         pureMixture;
    transport       constIso;
    thermo          hConst;
    equationOfState rhoConst;
    specie          specie;
    energy          sensibleEnthalpy;
}

Radiation model not active: radiationProperties not found
Selecting radiationModel none
Creating phiEA
Selecting regionType: electric
Get region properties from regionProperties

Selecting sigmaModel: constantSigma
Selecting sigmaModel: porousSigma
Selecting sigmaModel: porousSigma
Selecting sigmaModel: porousSigma
Creating phiEC
Selecting regionType: electric
Get region properties from regionProperties

Selecting sigmaModel: constantSigma
Selecting sigmaModel: porousSigma
Selecting sigmaModel: porousSigma
Selecting sigmaModel: porousSigma
Creating phiI
Selecting regionType: electric
Get region properties from regionProperties

Selecting dissolved water transfer Type: none
Selecting sigmaModel: constantSigma
Selecting sigmaModel: constantSigma
Selecting sigmaModel: constantSigma
Region: air Courant Number mean: 1.983784 max: 2
Region: fuel Courant Number mean: 0.001993243 max: 0.118

Starting time loop


Map to cell 

Map air to Cell

Map fuel to Cell

Map electrolyte to Cell

Map interconnect to Cell

Map phiEA to Cell 

Map phiEC to Cell 

Map phiI to Cell 


Time = 0.001

Region: air Courant Number mean: 1.983784 max: 2
Region: fuel Courant Number mean: 0.001993243 max: 0.118

Map from cell 

Map air from Cell

Map fuel from Cell

Map electrolyte from Cell

Map interconnect from Cell

Map phiEA from Cell 

Map phiEC from Cell 

Map phiI from Cell 

Selecting nernstModel for air: standard<heRhoThermo<multiComponentMixture<sutherland<janaf<perfectGas<specie>>,sensibleInternalEnergy>>>,heRhoThermo<multiComponentMixture<sutherland<janaf<perfectGas<specie>>,sensibleInternalEnergy>>>>
Nernst air: min = -0.4578759, mean = -0.4578759, max = -0.4578759
Total current (A) at ccl: 12.37986

Correct diffusivity for specie: O2

diffusivityModels::binaryFSG:
    diffusing speciesA molWt diffVol: O2 31.9988 16.3
   background speciesB molWt diffVol: N2 28.0134 18.5
diffusivityModels::porousFSG:
    diffusing speciesA molWt diffVol:  O2 31.9988 16.3
    background speciesB molWt diffVol: N2 28.0134 18.5
    dPore      = dPore [0 1 0 0 0 0 0] 1.65e-05
    porosity   = 0.7
    tortuosity = 1.15
diffusivityModels::porousFSG:
    diffusing speciesA molWt diffVol:  O2 31.9988 16.3
    background speciesB molWt diffVol: N2 28.0134 18.5
    dPore      = dPore [0 1 0 0 0 0 0] 4.6e-05
    porosity   = 0.4
    tortuosity = 1.6
diffusivityModels::porousFSG:
    diffusing speciesA molWt diffVol:  O2 31.9988 16.3
    background speciesB molWt diffVol: N2 28.0134 18.5
    dPore      = dPore [0 1 0 0 0 0 0] 3.6e-05
    porosity   = 0.3
    tortuosity = 1.83
Selecting nernstModel for fuel: standard<heRhoThermo<multiComponentMixture<sutherland<janaf<perfectGas<specie>>,sensibleInternalEnergy>>>,heRhoThermo<multiComponentMixture<sutherland<janaf<perfectGas<specie>>,sensibleInternalEnergy>>>>
Nernst fuel: min = -1.639689, mean = -1.639689, max = -1.639689
Total current (A) at acl: 2.370087

Correct diffusivity for specie: H2

diffusivityModels::binaryFSG:
    diffusing speciesA molWt diffVol: H2 2.01594 6.12
   background speciesB molWt diffVol: H2O 18.01534 13.1
diffusivityModels::porousFSG:
    diffusing speciesA molWt diffVol:  H2 2.01594 6.12
    background speciesB molWt diffVol: H2O 18.01534 13.1
    dPore      = dPore [0 1 0 0 0 0 0] 1.333333e-06
    porosity   = 0.7
    tortuosity = 1.15
diffusivityModels::porousFSG:
    diffusing speciesA molWt diffVol:  H2 2.01594 6.12
    background speciesB molWt diffVol: H2O 18.01534 13.1
    dPore      = dPore [0 1 0 0 0 0 0] 1.333333e-06
    porosity   = 0.4
    tortuosity = 1.6
diffusivityModels::porousFSG:
    diffusing speciesA molWt diffVol:  H2 2.01594 6.12
    background speciesB molWt diffVol: H2O 18.01534 13.1
    dPore      = dPore [0 1 0 0 0 0 0] 1.333333e-06
    porosity   = 0.3
    tortuosity = 1.8
ibar: 154748.3	voltage: 0.7

Solve for single phase flow:

Reading hRef
Calculating field g.h

Creating field dpdt

PIMPLE: iteration 1
DILUPBiCGStab:  Solving for O2, Initial residual = 1, Final residual = 8.039082e-10, No Iterations 46
Y: O2:0.1117827 -> 0.1981016
Constructing momentum equations
DICPCG:  Solving for p_rgh, Initial residual = 1, Final residual = 0.0009881369, No Iterations 212
DICPCG:  Solving for p_rgh, Initial residual = 0.01398764, Final residual = 1.006164e-05, No Iterations 208
DICPCG:  Solving for p_rgh, Initial residual = 0.008153889, Final residual = 8.049637e-11, No Iterations 239

Solve for single phase flow:

Reading hRef
Calculating field g.h

Creating field dpdt

PIMPLE: iteration 1
DILUPBiCGStab:  Solving for H2, Initial residual = 1, Final residual = 9.241843e-12, No Iterations 155
Y: H2:0.7423468 -> 0.8701488
Constructing momentum equations
DICPCG:  Solving for p_rgh, Initial residual = 1, Final residual = 0.0005305009, No Iterations 206
DICPCG:  Solving for p_rgh, Initial residual = 0.1062644, Final residual = 9.908529e-05, No Iterations 203
DICPCG:  Solving for p_rgh, Initial residual = 0.06896074, Final residual = 6.739289e-11, No Iterations 239

Solve for region phiEA:

GAMGPCG:  Solving for phi, Initial residual = 1, Final residual = 2.615997e-11, No Iterations 11

Solve for region phiEC:

GAMGPCG:  Solving for phi, Initial residual = 1, Final residual = 6.353851e-12, No Iterations 8

Solve for region phiI:

GAMG:  Solving for phi, Initial residual = 1, Final residual = 1.321306e-15, No Iterations 2

Map to cell 

Map air to Cell

Map fuel to Cell

Map electrolyte to Cell

Map interconnect to Cell

Map phiEA to Cell 

Map phiEC to Cell 

Map phiI to Cell 

Solving for temperature:

GAMGPBiCGStab:  Solving for T, Initial residual = 1, Final residual = 8.760877e-12, No Iterations 14
T: min = 790.27, mean = 810.7615, max = 847.8603
ExecutionTime = 1.99 s



Time = 0.002

Region: air Courant Number mean: 1.983784 max: 2
Region: fuel Courant Number mean: 0.001993243 max: 0.118

Map from cell 

Map air from Cell

Map fuel from Cell

Map electrolyte from Cell

Map interconnect from Cell

Map phiEA from Cell 

Map phiEC from Cell 

Map phiI from Cell 

Nernst air: min = -0.4603494, mean = -0.4580852, max = -0.4564017
Total current (A) at ccl: 0

Correct diffusivity for specie: O2

Nernst fuel: min = -1.639689, mean = -1.639689, max = -1.639689
Total current (A) at acl: 19.74071

Correct diffusivity for specie: H2

ibar: 0	voltage: 2.167483

Solve for single phase flow:

Reading hRef
Calculating field g.h

Creating field dpdt

PIMPLE: iteration 1
DILUPBiCGStab:  Solving for O2, Initial residual = 0.6682727, Final residual = 7.04618e-10, No Iterations 45
Y: O2:0.1293886 -> 0.2380823
Constructing momentum equations
DICPCG:  Solving for p_rgh, Initial residual = 0.04313568, Final residual = 2.84671e-05, No Iterations 208
DICPCG:  Solving for p_rgh, Initial residual = 0.01909488, Final residual = 1.782355e-05, No Iterations 207
DICPCG:  Solving for p_rgh, Initial residual = 0.008483533, Final residual = 6.437174e-11, No Iterations 238

Solve for single phase flow:

Reading hRef
Calculating field g.h

Creating field dpdt

PIMPLE: iteration 1
DILUPBiCGStab:  Solving for H2, Initial residual = 0.8645331, Final residual = 6.855181e-12, No Iterations 68
Y: H2:0.2114043 -> 0.7677406
Constructing momentum equations
DICPCG:  Solving for p_rgh, Initial residual = 0.1122124, Final residual = 8.141308e-05, No Iterations 205
DICPCG:  Solving for p_rgh, Initial residual = 0.01433587, Final residual = 1.311868e-05, No Iterations 202
DICPCG:  Solving for p_rgh, Initial residual = 0.00805895, Final residual = 9.436922e-11, No Iterations 232

Solve for region phiEA:

GAMGPCG:  Solving for phi, Initial residual = 0.06610998, Final residual = 9.282641e-11, No Iterations 9

Solve for region phiEC:

GAMGPCG:  Solving for phi, Initial residual = 0.5069454, Final residual = 1.019347e-11, No Iterations 8

Solve for region phiI:

GAMG:  Solving for phi, Initial residual = 0.9944525, Final residual = 6.488823e-16, No Iterations 2

Map to cell 

Map air to Cell

Map fuel to Cell

Map electrolyte to Cell

Map interconnect to Cell

Map phiEA to Cell 

Map phiEC to Cell 

Map phiI to Cell 

Solving for temperature:

GAMGPBiCGStab:  Solving for T, Initial residual = 0.6620469, Final residual = 2.439768e-11, No Iterations 12
T: min = 797.51, mean = 808.0738, max = 855.0068
ExecutionTime = 3.02 s



Time = 0.003

Region: air Courant Number mean: 1.983784 max: 2
Region: fuel Courant Number mean: 0.001993243 max: 0.118

Map from cell 

Map air from Cell

Map fuel from Cell

Map electrolyte from Cell

Map interconnect from Cell

Map phiEA from Cell 

Map phiEC from Cell 

Map phiI from Cell 

Nernst air: min = -0.5101644, mean = -0.4942077, max = -0.47572
Total current (A) at ccl: 0

Correct diffusivity for specie: O2

Nernst fuel: min = -1.660398, mean = -1.648569, max = -1.638482
Total current (A) at acl: 0.485661

Correct diffusivity for specie: H2

ibar: 0	voltage: 2.087483

Solve for single phase flow:

Reading hRef
Calculating field g.h

Creating field dpdt

PIMPLE: iteration 1
DILUPBiCGStab:  Solving for O2, Initial residual = 0.3813398, Final residual = 2.578863e-10, No Iterations 28
Y: O2:0.1324476 -> 0.2297645
Constructing momentum equations
DICPCG:  Solving for p_rgh, Initial residual = 0.05270147, Final residual = 3.893577e-05, No Iterations 204
DICPCG:  Solving for p_rgh, Initial residual = 0.01427666, Final residual = 1.266019e-05, No Iterations 202
DICPCG:  Solving for p_rgh, Initial residual = 0.01008768, Final residual = 8.370128e-11, No Iterations 237

Solve for single phase flow:

Reading hRef
Calculating field g.h

Creating field dpdt

PIMPLE: iteration 1
DILUPBiCGStab:  Solving for H2, Initial residual = 0.08417954, Final residual = 8.17668e-12, No Iterations 40
Y: H2:0.05762154 -> 0.7372453
Constructing momentum equations
DICPCG:  Solving for p_rgh, Initial residual = 0.05747358, Final residual = 5.419762e-05, No Iterations 198
DICPCG:  Solving for p_rgh, Initial residual = 0.01859315, Final residual = 1.364728e-05, No Iterations 199
DICPCG:  Solving for p_rgh, Initial residual = 0.009033728, Final residual = 9.109738e-11, No Iterations 229

Solve for region phiEA:

GAMGPCG:  Solving for phi, Initial residual = 0.009572772, Final residual = 1.396125e-11, No Iterations 9

Solve for region phiEC:

GAMGPCG:  Solving for phi, Initial residual = 1, Final residual = 6.603601e-12, No Iterations 8

Solve for region phiI:

GAMG:  Solving for phi, Initial residual = 0.6977886, Final residual = 1.794234e-14, No Iterations 2

Map to cell 

Map air to Cell

Map fuel to Cell

Map electrolyte to Cell

Map interconnect to Cell

Map phiEA to Cell 

Map phiEC to Cell 

Map phiI to Cell 

Solving for temperature:

GAMGPBiCGStab:  Solving for T, Initial residual = 0.7053159, Final residual = 4.246073e-11, No Iterations 13
T: min = 800.7856, mean = 807.531, max = 855.3449
ExecutionTime = 4.02 s



Time = 0.004

Region: air Courant Number mean: 1.983784 max: 2
Region: fuel Courant Number mean: 0.001993243 max: 0.118

Map from cell 

Map air from Cell

Map fuel from Cell

Map electrolyte from Cell

Map interconnect from Cell

Map phiEA from Cell 

Map phiEC from Cell 

Map phiI from Cell 

Nernst air: min = -0.5102126, mean = -0.4883004, max = -0.4808883
Total current (A) at ccl: 0

Correct diffusivity for specie: O2

Nernst fuel: min = -1.654824, mean = -1.625083, max = -1.615768
Total current (A) at acl: 0

Correct diffusivity for specie: H2

ibar: 0	voltage: 2.007483

Solve for single phase flow:

Reading hRef
Calculating field g.h

Creating field dpdt

PIMPLE: iteration 1
DILUPBiCGStab:  Solving for O2, Initial residual = 0.1607933, Final residual = 3.292542e-10, No Iterations 28
Y: O2:0.1345469 -> 0.2299895
Constructing momentum equations
DICPCG:  Solving for p_rgh, Initial residual = 0.03686951, Final residual = 3.543771e-05, No Iterations 204
DICPCG:  Solving for p_rgh, Initial residual = 0.01029306, Final residual = 5.939096e-06, No Iterations 206
DICPCG:  Solving for p_rgh, Initial residual = 0.007459592, Final residual = 7.304698e-11, No Iterations 238

Solve for single phase flow:

Reading hRef
Calculating field g.h

Creating field dpdt

PIMPLE: iteration 1
DILUPBiCGStab:  Solving for H2, Initial residual = 0.503394, Final residual = 2.81111e-12, No Iterations 90
Y: H2:0.1568376 -> 0.6900737
Constructing momentum equations
DICPCG:  Solving for p_rgh, Initial residual = 0.1029297, Final residual = 7.921721e-05, No Iterations 195
DICPCG:  Solving for p_rgh, Initial residual = 0.02056158, Final residual = 1.482742e-05, No Iterations 200
DICPCG:  Solving for p_rgh, Initial residual = 0.01492332, Final residual = 7.973534e-11, No Iterations 231

Solve for region phiEA:

GAMGPCG:  Solving for phi, Initial residual = 0.01120143, Final residual = 3.229455e-11, No Iterations 9

Solve for region phiEC:

GAMGPCG:  Solving for phi, Initial residual = 1, Final residual = 6.6036e-12, No Iterations 8

Solve for region phiI:

GAMG:  Solving for phi, Initial residual = 0.03390322, Final residual = 3.036148e-14, No Iterations 2

Map to cell 

Map air to Cell

Map fuel to Cell

Map electrolyte to Cell

Map interconnect to Cell

Map phiEA to Cell 

Map phiEC to Cell 

Map phiI to Cell 

Solving for temperature:

GAMGPBiCGStab:  Solving for T, Initial residual = 0.2961404, Final residual = 3.611858e-11, No Iterations 12
T: min = 802.5731, mean = 807.8004, max = 855.5728
ExecutionTime = 5.08 s



Time = 0.005

Region: air Courant Number mean: 1.983784 max: 2
Region: fuel Courant Number mean: 0.001993243 max: 0.118

Map from cell 

Map air from Cell

Map fuel from Cell

Map electrolyte from Cell

Map interconnect from Cell

Map phiEA from Cell 

Map phiEC from Cell 

Map phiI from Cell 

Nernst air: min = -0.5109803, mean = -0.4879625, max = -0.4833178
Total current (A) at ccl: 0

Correct diffusivity for specie: O2

Nernst fuel: min = -1.62481, mean = -1.557591, max = -1.490752
Total current (A) at acl: 0

Correct diffusivity for specie: H2

ibar: 0	voltage: 1.927483

Solve for single phase flow:

Reading hRef
Calculating field g.h

Creating field dpdt

PIMPLE: iteration 1
DILUPBiCGStab:  Solving for O2, Initial residual = 0.1287118, Final residual = 2.158862e-10, No Iterations 28
Y: O2:0.1368256 -> 0.2299946
Constructing momentum equations
DICPCG:  Solving for p_rgh, Initial residual = 0.02157652, Final residual = 1.864059e-05, No Iterations 206
DICPCG:  Solving for p_rgh, Initial residual = 0.008595391, Final residual = 7.192405e-06, No Iterations 204
DICPCG:  Solving for p_rgh, Initial residual = 0.006228146, Final residual = 7.133721e-11, No Iterations 238

Solve for single phase flow:

Reading hRef
Calculating field g.h

Creating field dpdt

PIMPLE: iteration 1
DILUPBiCGStab:  Solving for H2, Initial residual = 0.2687266, Final residual = 8.309528e-12, No Iterations 89
Y: H2:0.2288 -> 0.7696061
Constructing momentum equations
DICPCG:  Solving for p_rgh, Initial residual = 0.06498392, Final residual = 5.447141e-05, No Iterations 197
DICPCG:  Solving for p_rgh, Initial residual = 0.01428165, Final residual = 1.15441e-05, No Iterations 200
DICPCG:  Solving for p_rgh, Initial residual = 0.0116633, Final residual = 7.176774e-11, No Iterations 231

Solve for region phiEA:

GAMGPCG:  Solving for phi, Initial residual = 0.1494188, Final residual = 8.496661e-11, No Iterations 10

Solve for region phiEC:

GAMGPCG:  Solving for phi, Initial residual = 1, Final residual = 6.6036e-12, No Iterations 8

Solve for region phiI:

GAMG:  Solving for phi, Initial residual = 0.02201263, Final residual = 3.066799e-14, No Iterations 2

Map to cell 

Map air to Cell

Map fuel to Cell

Map electrolyte to Cell

Map interconnect to Cell

Map phiEA to Cell 

Map phiEC to Cell 

Map phiI to Cell 

Solving for temperature:

GAMGPBiCGStab:  Solving for T, Initial residual = 0.1086127, Final residual = 8.239622e-11, No Iterations 13
T: min = 803.7058, mean = 808.0811, max = 855.7024
ExecutionTime = 6.16 s



Time = 0.006

Region: air Courant Number mean: 1.983784 max: 2
Region: fuel Courant Number mean: 0.001993243 max: 0.118

Map from cell 

Map air from Cell

Map fuel from Cell

Map electrolyte from Cell

Map interconnect from Cell

Map phiEA from Cell 

Map phiEC from Cell 

Map phiI from Cell 

Nernst air: min = -0.511135, mean = -0.4879975, max = -0.484195
Total current (A) at ccl: 0

Correct diffusivity for specie: O2

Nernst fuel: min = -1.614076, mean = -1.556747, max = -1.518786
Total current (A) at acl: 0

Correct diffusivity for specie: H2

ibar: 0	voltage: 1.847483

Solve for single phase flow:

Reading hRef
Calculating field g.h

Creating field dpdt

PIMPLE: iteration 1
DILUPBiCGStab:  Solving for O2, Initial residual = 0.1051031, Final residual = 9.934608e-10, No Iterations 26
Y: O2:0.1385053 -> 0.2300102
Constructing momentum equations
DICPCG:  Solving for p_rgh, Initial residual = 0.0133574, Final residual = 9.097101e-06, No Iterations 207
DICPCG:  Solving for p_rgh, Initial residual = 0.006825761, Final residual = 5.003849e-06, No Iterations 205
DICPCG:  Solving for p_rgh, Initial residual = 0.004965486, Final residual = 7.037484e-11, No Iterations 238

Solve for single phase flow:

Reading hRef
Calculating field g.h

Creating field dpdt

PIMPLE: iteration 1
DILUPBiCGStab:  Solving for H2, Initial residual = 0.149969, Final residual = 7.266326e-12, No Iterations 96
Y: H2:0.2870582 -> 0.8318114
Constructing momentum equations
DICPCG:  Solving for p_rgh, Initial residual = 0.05148608, Final residual = 4.968529e-05, No Iterations 195
DICPCG:  Solving for p_rgh, Initial residual = 0.01353771, Final residual = 1.057681e-05, No Iterations 199
DICPCG:  Solving for p_rgh, Initial residual = 0.01114247, Final residual = 8.193777e-11, No Iterations 229

Solve for region phiEA:

GAMGPCG:  Solving for phi, Initial residual = 0.1060217, Final residual = 4.376016e-11, No Iterations 9

Solve for region phiEC:

GAMGPCG:  Solving for phi, Initial residual = 1, Final residual = 6.6036e-12, No Iterations 8

Solve for region phiI:

GAMG:  Solving for phi, Initial residual = 0.01767293, Final residual = 3.153105e-14, No Iterations 2

Map to cell 

Map air to Cell

Map fuel to Cell

Map electrolyte to Cell

Map interconnect to Cell

Map phiEA to Cell 

Map phiEC to Cell 

Map phiI to Cell 

Solving for temperature:

GAMGPBiCGStab:  Solving for T, Initial residual = 0.06659248, Final residual = 8.057764e-11, No Iterations 11
T: min = 804.4233, mean = 808.3819, max = 855.7726
ExecutionTime = 7.2 s



Time = 0.007

Region: air Courant Number mean: 1.983784 max: 2
Region: fuel Courant Number mean: 0.001993243 max: 0.118

Map from cell 

Map air from Cell

Map fuel from Cell

Map electrolyte from Cell

Map interconnect from Cell

Map phiEA from Cell 

Map phiEC from Cell 

Map phiI from Cell 

Nernst air: min = -0.511223, mean = -0.4879583, max = -0.4844209
Total current (A) at ccl: 0

Correct diffusivity for specie: O2

Nernst fuel: min = -1.610131, mean = -1.570898, max = -1.535213
Total current (A) at acl: 0

Correct diffusivity for specie: H2

ibar: 0	voltage: 1.767483

Solve for single phase flow:

Reading hRef
Calculating field g.h

Creating field dpdt

PIMPLE: iteration 1
DILUPBiCGStab:  Solving for O2, Initial residual = 0.08295653, Final residual = 9.537981e-10, No Iterations 27
Y: O2:0.1395104 -> 0.2299983
Constructing momentum equations
DICPCG:  Solving for p_rgh, Initial residual = 0.009015679, Final residual = 6.62398e-06, No Iterations 207
DICPCG:  Solving for p_rgh, Initial residual = 0.005425201, Final residual = 3.874463e-06, No Iterations 205
DICPCG:  Solving for p_rgh, Initial residual = 0.003974064, Final residual = 7.172972e-11, No Iterations 236

Solve for single phase flow:

Reading hRef
Calculating field g.h

Creating field dpdt

PIMPLE: iteration 1
DILUPBiCGStab:  Solving for H2, Initial residual = 0.0922866, Final residual = 8.487275e-12, No Iterations 100
Y: H2:0.3302893 -> 0.8630043
Constructing momentum equations
DICPCG:  Solving for p_rgh, Initial residual = 0.04309736, Final residual = 3.932103e-05, No Iterations 197
DICPCG:  Solving for p_rgh, Initial residual = 0.01296221, Final residual = 1.047238e-05, No Iterations 199
DICPCG:  Solving for p_rgh, Initial residual = 0.01078909, Final residual = 7.650273e-11, No Iterations 229

Solve for region phiEA:

GAMGPCG:  Solving for phi, Initial residual = 3.28637e-08, Final residual = 2.602037e-11, No Iterations 3

Solve for region phiEC:

GAMGPCG:  Solving for phi, Initial residual = 1, Final residual = 6.6036e-12, No Iterations 8

Solve for region phiI:

GAMG:  Solving for phi, Initial residual = 0.01540416, Final residual = 3.293067e-14, No Iterations 2

Map to cell 

Map air to Cell

Map fuel to Cell

Map electrolyte to Cell

Map interconnect to Cell

Map phiEA to Cell 

Map phiEC to Cell 

Map phiI to Cell 

Solving for temperature:

GAMGPBiCGStab:  Solving for T, Initial residual = 0.05775065, Final residual = 9.445722e-11, No Iterations 13
T: min = 804.7993, mean = 808.6913, max = 855.8226
ExecutionTime = 8.56 s



Time = 0.008

Region: air Courant Number mean: 1.983784 max: 2
Region: fuel Courant Number mean: 0.001993243 max: 0.118

Map from cell 

Map air from Cell

Map fuel from Cell

Map electrolyte from Cell

Map interconnect from Cell

Map phiEA from Cell 

Map phiEC from Cell 

Map phiI from Cell 

Nernst air: min = -0.5112695, mean = -0.4879117, max = -0.4845795
Total current (A) at ccl: 0

Correct diffusivity for specie: O2

Nernst fuel: min = -1.630762, mean = -1.579734, max = -1.546247
Total current (A) at acl: 0

Correct diffusivity for specie: H2

ibar: 0	voltage: 1.687483

Solve for single phase flow:

Reading hRef
Calculating field g.h

Creating field dpdt

PIMPLE: iteration 1
DILUPBiCGStab:  Solving for O2, Initial residual = 0.07487198, Final residual = 8.381274e-10, No Iterations 25
Y: O2:0.1402324 -> 0.2300106
Constructing momentum equations
DICPCG:  Solving for p_rgh, Initial residual = 0.006699692, Final residual = 6.638428e-06, No Iterations 203
DICPCG:  Solving for p_rgh, Initial residual = 0.004422703, Final residual = 3.950909e-06, No Iterations 205
DICPCG:  Solving for p_rgh, Initial residual = 0.003238359, Final residual = 9.665605e-11, No Iterations 236

Solve for single phase flow:

Reading hRef
Calculating field g.h

Creating field dpdt

PIMPLE: iteration 1
DILUPBiCGStab:  Solving for H2, Initial residual = 0.1005389, Final residual = 8.690941e-12, No Iterations 112
Y: H2:0.3704754 -> 0.877246
Constructing momentum equations
DICPCG:  Solving for p_rgh, Initial residual = 0.03691269, Final residual = 3.530774e-05, No Iterations 198
DICPCG:  Solving for p_rgh, Initial residual = 0.01221594, Final residual = 1.127763e-05, No Iterations 199
DICPCG:  Solving for p_rgh, Initial residual = 0.01014066, Final residual = 8.324953e-11, No Iterations 230

Solve for region phiEA:

GAMGPCG:  Solving for phi, Initial residual = 2.602037e-11, Final residual = 2.602037e-11, No Iterations 0

Solve for region phiEC:

GAMGPCG:  Solving for phi, Initial residual = 1, Final residual = 6.6036e-12, No Iterations 8

Solve for region phiI:

GAMG:  Solving for phi, Initial residual = 0.01448293, Final residual = 3.357837e-14, No Iterations 2

Map to cell 

Map air to Cell

Map fuel to Cell

Map electrolyte to Cell

Map interconnect to Cell

Map phiEA to Cell 

Map phiEC to Cell 

Map phiI to Cell 

Solving for temperature:

GAMGPBiCGStab:  Solving for T, Initial residual = 0.05509818, Final residual = 5.919347e-11, No Iterations 11
T: min = 805.1244, mean = 809.0055, max = 855.8676
ExecutionTime = 9.87 s



Time = 0.009

Region: air Courant Number mean: 1.983784 max: 2
Region: fuel Courant Number mean: 0.001993243 max: 0.118

Map from cell 

Map air from Cell

Map fuel from Cell

Map electrolyte from Cell

Map interconnect from Cell

Map phiEA from Cell 

Map phiEC from Cell 

Map phiI from Cell 

Nernst air: min = -0.5113058, mean = -0.4878695, max = -0.4845924
Total current (A) at ccl: 0

Correct diffusivity for specie: O2

Nernst fuel: min = -1.643918, mean = -1.584234, max = -1.554044
Total current (A) at acl: 0

Correct diffusivity for specie: H2

ibar: 0	voltage: 1.607483

Solve for single phase flow:

Reading hRef
Calculating field g.h

Creating field dpdt

PIMPLE: iteration 1
DILUPBiCGStab:  Solving for O2, Initial residual = 0.06245748, Final residual = 9.55857e-10, No Iterations 25
Y: O2:0.1407813 -> 0.2299993
Constructing momentum equations
DICPCG:  Solving for p_rgh, Initial residual = 0.004945173, Final residual = 4.094614e-06, No Iterations 205
DICPCG:  Solving for p_rgh, Initial residual = 0.003538369, Final residual = 3.163928e-06, No Iterations 204
DICPCG:  Solving for p_rgh, Initial residual = 0.002609785, Final residual = 7.453551e-11, No Iterations 236

Solve for single phase flow:

Reading hRef
Calculating field g.h

Creating field dpdt

PIMPLE: iteration 1
DILUPBiCGStab:  Solving for H2, Initial residual = 0.1113258, Final residual = 7.193451e-12, No Iterations 122
Y: H2:0.4063074 -> 0.885289
Constructing momentum equations
DICPCG:  Solving for p_rgh, Initial residual = 0.03622204, Final residual = 3.548873e-05, No Iterations 197
DICPCG:  Solving for p_rgh, Initial residual = 0.01232488, Final residual = 1.100115e-05, No Iterations 199
DICPCG:  Solving for p_rgh, Initial residual = 0.01023044, Final residual = 6.076718e-11, No Iterations 231

Solve for region phiEA:

GAMGPCG:  Solving for phi, Initial residual = 2.602037e-11, Final residual = 2.602037e-11, No Iterations 0

Solve for region phiEC:

GAMGPCG:  Solving for phi, Initial residual = 1, Final residual = 6.6036e-12, No Iterations 8

Solve for region phiI:

GAMG:  Solving for phi, Initial residual = 0.01387686, Final residual = 3.38219e-14, No Iterations 2

Map to cell 

Map air to Cell

Map fuel to Cell

Map electrolyte to Cell

Map interconnect to Cell

Map phiEA to Cell 

Map phiEC to Cell 

Map phiI to Cell 

Solving for temperature:

GAMGPBiCGStab:  Solving for T, Initial residual = 0.05363942, Final residual = 7.078925e-11, No Iterations 11
T: min = 805.5129, mean = 809.3222, max = 855.9129
ExecutionTime = 11.26 s



Time = 0.01

Region: air Courant Number mean: 1.983784 max: 2
Region: fuel Courant Number mean: 0.001993243 max: 0.118

Map from cell 

Map air from Cell

Map fuel from Cell

Map electrolyte from Cell

Map interconnect from Cell

Map phiEA from Cell 

Map phiEC from Cell 

Map phiI from Cell 

Nernst air: min = -0.5113356, mean = -0.4878387, max = -0.4845393
Total current (A) at ccl: 0

Correct diffusivity for specie: O2

Nernst fuel: min = -1.651148, mean = -1.587464, max = -1.560132
Total current (A) at acl: 0

Correct diffusivity for specie: H2

ibar: 0	voltage: 1.527483

Solve for single phase flow:

Reading hRef
Calculating field g.h

Creating field dpdt

PIMPLE: iteration 1
DILUPBiCGStab:  Solving for O2, Initial residual = 0.05745756, Final residual = 6.665683e-10, No Iterations 27
Y: O2:0.1412265 -> 0.2300042
Constructing momentum equations
DICPCG:  Solving for p_rgh, Initial residual = 0.003855117, Final residual = 3.636052e-06, No Iterations 206
DICPCG:  Solving for p_rgh, Initial residual = 0.002905587, Final residual = 2.751149e-06, No Iterations 204
DICPCG:  Solving for p_rgh, Initial residual = 0.002151813, Final residual = 7.818024e-11, No Iterations 235

Solve for single phase flow:

Reading hRef
Calculating field g.h

Creating field dpdt

PIMPLE: iteration 1
DILUPBiCGStab:  Solving for H2, Initial residual = 0.11399, Final residual = 6.80017e-12, No Iterations 130
Y: H2:0.4390156 -> 0.8900954
Constructing momentum equations
DICPCG:  Solving for p_rgh, Initial residual = 0.03539044, Final residual = 3.437512e-05, No Iterations 197
DICPCG:  Solving for p_rgh, Initial residual = 0.0130599, Final residual = 1.030779e-05, No Iterations 199
DICPCG:  Solving for p_rgh, Initial residual = 0.01082401, Final residual = 6.708402e-11, No Iterations 231

Solve for region phiEA:

GAMGPCG:  Solving for phi, Initial residual = 2.602037e-11, Final residual = 2.602037e-11, No Iterations 0

Solve for region phiEC:

GAMGPCG:  Solving for phi, Initial residual = 1, Final residual = 6.6036e-12, No Iterations 8

Solve for region phiI:

GAMG:  Solving for phi, Initial residual = 0.01344553, Final residual = 3.550448e-14, No Iterations 2

Map to cell 

Map air to Cell

Map fuel to Cell

Map electrolyte to Cell

Map interconnect to Cell

Map phiEA to Cell 

Map phiEC to Cell 

Map phiI to Cell 

Solving for temperature:

GAMGPBiCGStab:  Solving for T, Initial residual = 0.05200966, Final residual = 5.720011e-11, No Iterations 11
T: min = 805.8498, mean = 809.6367, max = 855.9612
ExecutionTime = 12.63 s



Time = 0.011

Region: air Courant Number mean: 1.983784 max: 2
Region: fuel Courant Number mean: 0.001993243 max: 0.118

Map from cell 

Map air from Cell

Map fuel from Cell

Map electrolyte from Cell

Map interconnect from Cell

Map phiEA from Cell 

Map phiEC from Cell 

Map phiI from Cell 

Nernst air: min = -0.5113676, mean = -0.4878147, max = -0.4845678
Total current (A) at ccl: 0

Correct diffusivity for specie: O2

Nernst fuel: min = -1.655033, mean = -1.590343, max = -1.565681
Total current (A) at acl: 0

Correct diffusivity for specie: H2

ibar: 0	voltage: 1.447483

Solve for single phase flow:

Reading hRef
Calculating field g.h

Creating field dpdt

PIMPLE: iteration 1
DILUPBiCGStab:  Solving for O2, Initial residual = 0.04926289, Final residual = 7.701653e-10, No Iterations 26
Y: O2:0.141602 -> 0.2300004
Constructing momentum equations
DICPCG:  Solving for p_rgh, Initial residual = 0.002941169, Final residual = 2.810222e-06, No Iterations 204
DICPCG:  Solving for p_rgh, Initial residual = 0.00237987, Final residual = 1.784955e-06, No Iterations 206
DICPCG:  Solving for p_rgh, Initial residual = 0.001777374, Final residual = 5.975391e-11, No Iterations 235

Solve for single phase flow:

Reading hRef
Calculating field g.h

Creating field dpdt

PIMPLE: iteration 1
DILUPBiCGStab:  Solving for H2, Initial residual = 0.1113177, Final residual = 9.576125e-12, No Iterations 145
Y: H2:0.4677354 -> 0.8931662
Constructing momentum equations
DICPCG:  Solving for p_rgh, Initial residual = 0.03503819, Final residual = 3.378675e-05, No Iterations 197
DICPCG:  Solving for p_rgh, Initial residual = 0.01403811, Final residual = 1.115614e-05, No Iterations 199
DICPCG:  Solving for p_rgh, Initial residual = 0.0116668, Final residual = 8.006931e-11, No Iterations 231

Solve for region phiEA:

GAMGPCG:  Solving for phi, Initial residual = 2.602037e-11, Final residual = 2.602037e-11, No Iterations 0

Solve for region phiEC:

GAMGPCG:  Solving for phi, Initial residual = 1, Final residual = 6.6036e-12, No Iterations 8

Solve for region phiI:

GAMG:  Solving for phi, Initial residual = 0.01311825, Final residual = 3.567892e-14, No Iterations 2

Map to cell 

Map air to Cell

Map fuel to Cell

Map electrolyte to Cell

Map interconnect to Cell

Map phiEA to Cell 

Map phiEC to Cell 

Map phiI to Cell 

Solving for temperature:

GAMGPBiCGStab:  Solving for T, Initial residual = 0.05121657, Final residual = 6.992615e-11, No Iterations 12
T: min = 806.1047, mean = 809.9501, max = 856.0127
ExecutionTime = 13.94 s



Time = 0.012

Region: air Courant Number mean: 1.983784 max: 2
Region: fuel Courant Number mean: 0.001993243 max: 0.118

Map from cell 

Map air from Cell

Map fuel from Cell

Map electrolyte from Cell

Map interconnect from Cell

Map phiEA from Cell 

Map phiEC from Cell 

Map phiI from Cell 

Nernst air: min = -0.5113996, mean = -0.4877925, max = -0.4845585
Total current (A) at ccl: 0

Correct diffusivity for specie: O2

Nernst fuel: min = -1.657463, mean = -1.593077, max = -1.570374
Total current (A) at acl: 0

Correct diffusivity for specie: H2

ibar: 0	voltage: 1.367483

Solve for single phase flow:

Reading hRef
Calculating field g.h

Creating field dpdt

PIMPLE: iteration 1
DILUPBiCGStab:  Solving for O2, Initial residual = 0.0453165, Final residual = 2.753004e-10, No Iterations 25
Y: O2:0.1419207 -> 0.2300016
Constructing momentum equations
DICPCG:  Solving for p_rgh, Initial residual = 0.002357626, Final residual = 2.206281e-06, No Iterations 206
DICPCG:  Solving for p_rgh, Initial residual = 0.001945875, Final residual = 1.212005e-06, No Iterations 206
DICPCG:  Solving for p_rgh, Initial residual = 0.001460142, Final residual = 5.529655e-11, No Iterations 235

Solve for single phase flow:

Reading hRef
Calculating field g.h

Creating field dpdt

PIMPLE: iteration 1
DILUPBiCGStab:  Solving for H2, Initial residual = 0.1016745, Final residual = 5.03342e-12, No Iterations 163
Y: H2:0.4920438 -> 0.8952004
Constructing momentum equations
DICPCG:  Solving for p_rgh, Initial residual = 0.03536431, Final residual = 2.568753e-05, No Iterations 198
DICPCG:  Solving for p_rgh, Initial residual = 0.01529699, Final residual = 1.332183e-05, No Iterations 199
DICPCG:  Solving for p_rgh, Initial residual = 0.01280435, Final residual = 8.856655e-11, No Iterations 231

Solve for region phiEA:

GAMGPCG:  Solving for phi, Initial residual = 2.602037e-11, Final residual = 2.602037e-11, No Iterations 0

Solve for region phiEC:

GAMGPCG:  Solving for phi, Initial residual = 1, Final residual = 6.6036e-12, No Iterations 8

Solve for region phiI:

GAMG:  Solving for phi, Initial residual = 0.01285711, Final residual = 3.632886e-14, No Iterations 2

Map to cell 

Map air to Cell

Map fuel to Cell

Map electrolyte to Cell

Map interconnect to Cell

Map phiEA to Cell 

Map phiEC to Cell 

Map phiI to Cell 

Solving for temperature:

GAMGPBiCGStab:  Solving for T, Initial residual = 0.05057234, Final residual = 8.780991e-11, No Iterations 11
T: min = 806.4678, mean = 810.2619, max = 856.0683
ExecutionTime = 15.33 s



Time = 0.013

Region: air Courant Number mean: 1.983784 max: 2
Region: fuel Courant Number mean: 0.001993243 max: 0.118

Map from cell 

Map air from Cell

Map fuel from Cell

Map electrolyte from Cell

Map interconnect from Cell

Map phiEA from Cell 

Map phiEC from Cell 

Map phiI from Cell 

Nernst air: min = -0.5114346, mean = -0.4877721, max = -0.4845647
Total current (A) at ccl: 0

Correct diffusivity for specie: O2

Nernst fuel: min = -1.659341, mean = -1.595756, max = -1.574712
Total current (A) at acl: 0

Correct diffusivity for specie: H2

ibar: 0	voltage: 1.287483

Solve for single phase flow:

Reading hRef
Calculating field g.h

Creating field dpdt

PIMPLE: iteration 1
DILUPBiCGStab:  Solving for O2, Initial residual = 0.04142731, Final residual = 5.961345e-10, No Iterations 24
Y: O2:0.1421723 -> 0.2300004
Constructing momentum equations
DICPCG:  Solving for p_rgh, Initial residual = 0.001874994, Final residual = 1.781248e-06, No Iterations 207
DICPCG:  Solving for p_rgh, Initial residual = 0.001585343, Final residual = 1.054528e-06, No Iterations 206
DICPCG:  Solving for p_rgh, Initial residual = 0.001196001, Final residual = 9.600861e-11, No Iterations 234

Solve for single phase flow:

Reading hRef
Calculating field g.h

Creating field dpdt

PIMPLE: iteration 1
DILUPBiCGStab:  Solving for H2, Initial residual = 0.08726855, Final residual = 8.000376e-12, No Iterations 143
Y: H2:0.5126037 -> 0.8965824
Constructing momentum equations
DICPCG:  Solving for p_rgh, Initial residual = 0.03697043, Final residual = 2.304941e-05, No Iterations 198
DICPCG:  Solving for p_rgh, Initial residual = 0.01697853, Final residual = 1.538809e-05, No Iterations 199
DICPCG:  Solving for p_rgh, Initial residual = 0.01440071, Final residual = 5.98533e-11, No Iterations 232

Solve for region phiEA:

GAMGPCG:  Solving for phi, Initial residual = 2.602037e-11, Final residual = 2.602037e-11, No Iterations 0

Solve for region phiEC:

GAMGPCG:  Solving for phi, Initial residual = 1, Final residual = 6.6036e-12, No Iterations 8

Solve for region phiI:

GAMG:  Solving for phi, Initial residual = 0.01271483, Final residual = 3.763446e-14, No Iterations 2

Map to cell 

Map air to Cell

Map fuel to Cell

Map electrolyte to Cell

Map interconnect to Cell

Map phiEA to Cell 

Map phiEC to Cell 

Map phiI to Cell 

Solving for temperature:

GAMGPBiCGStab:  Solving for T, Initial residual = 0.05034011, Final residual = 9.194827e-11, No Iterations 11
T: min = 806.8245, mean = 810.5733, max = 856.1286
ExecutionTime = 16.65 s



Time = 0.014

Region: air Courant Number mean: 1.983784 max: 2
Region: fuel Courant Number mean: 0.001993243 max: 0.118

Map from cell 

Map air from Cell

Map fuel from Cell

Map electrolyte from Cell

Map interconnect from Cell

Map phiEA from Cell 

Map phiEC from Cell 

Map phiI from Cell 

Nernst air: min = -0.5114712, mean = -0.4877586, max = -0.4845582
Total current (A) at ccl: 0

Correct diffusivity for specie: O2

Nernst fuel: min = -1.660726, mean = -1.598352, max = -1.578353
Total current (A) at acl: 0

Correct diffusivity for specie: H2

ibar: 0	voltage: 1.207483

Solve for single phase flow:

Reading hRef
Calculating field g.h

Creating field dpdt

PIMPLE: iteration 1
DILUPBiCGStab:  Solving for O2, Initial residual = 0.04037373, Final residual = 9.289544e-10, No Iterations 22
Y: O2:0.142403 -> 0.2300007
Constructing momentum equations
DICPCG:  Solving for p_rgh, Initial residual = 0.001501545, Final residual = 1.35663e-06, No Iterations 206
DICPCG:  Solving for p_rgh, Initial residual = 0.001275075, Final residual = 1.233138e-06, No Iterations 205
DICPCG:  Solving for p_rgh, Initial residual = 0.0009703344, Final residual = 7.296901e-11, No Iterations 234

Solve for single phase flow:

Reading hRef
Calculating field g.h

Creating field dpdt

PIMPLE: iteration 1
DILUPBiCGStab:  Solving for H2, Initial residual = 0.07373898, Final residual = 5.35231e-12, No Iterations 149
Y: H2:0.5298177 -> 0.8975392
Constructing momentum equations
DICPCG:  Solving for p_rgh, Initial residual = 0.03954435, Final residual = 2.418338e-05, No Iterations 198
DICPCG:  Solving for p_rgh, Initial residual = 0.01951864, Final residual = 1.843853e-05, No Iterations 199
DICPCG:  Solving for p_rgh, Initial residual = 0.0168687, Final residual = 7.412827e-11, No Iterations 232

Solve for region phiEA:

GAMGPCG:  Solving for phi, Initial residual = 2.602037e-11, Final residual = 2.602037e-11, No Iterations 0

Solve for region phiEC:

GAMGPCG:  Solving for phi, Initial residual = 1, Final residual = 6.6036e-12, No Iterations 8

Solve for region phiI:

GAMG:  Solving for phi, Initial residual = 0.01266046, Final residual = 3.863183e-14, No Iterations 2

Map to cell 

Map air to Cell

Map fuel to Cell

Map electrolyte to Cell

Map interconnect to Cell

Map phiEA to Cell 

Map phiEC to Cell 

Map phiI to Cell 

Solving for temperature:

GAMGPBiCGStab:  Solving for T, Initial residual = 0.04923527, Final residual = 5.412431e-11, No Iterations 11
T: min = 807.0996, mean = 810.88, max = 856.1932
ExecutionTime = 18.14 s



Time = 0.015

Region: air Courant Number mean: 1.983784 max: 2
Region: fuel Courant Number mean: 0.001993243 max: 0.118

Map from cell 

Map air from Cell

Map fuel from Cell

Map electrolyte from Cell

Map interconnect from Cell

Map phiEA from Cell 

Map phiEC from Cell 

Map phiI from Cell 

Nernst air: min = -0.5115113, mean = -0.48775, max = -0.4845671
Total current (A) at ccl: 0.2874853

Correct diffusivity for specie: O2

Nernst fuel: min = -1.661711, mean = -1.600957, max = -1.581531
Total current (A) at acl: 0

Correct diffusivity for specie: H2

ibar: 3593.567	voltage: 1.127483

Solve for single phase flow:

Reading hRef
Calculating field g.h

Creating field dpdt

PIMPLE: iteration 1
DILUPBiCGStab:  Solving for O2, Initial residual = 0.04589939, Final residual = 8.70796e-10, No Iterations 24
Y: O2:0.1389485 -> 0.2299995
Constructing momentum equations
DICPCG:  Solving for p_rgh, Initial residual = 0.003402009, Final residual = 3.091109e-06, No Iterations 203
DICPCG:  Solving for p_rgh, Initial residual = 0.004525596, Final residual = 4.261293e-06, No Iterations 204
DICPCG:  Solving for p_rgh, Initial residual = 0.002812307, Final residual = 9.895544e-11, No Iterations 235

Solve for single phase flow:

Reading hRef
Calculating field g.h

Creating field dpdt

PIMPLE: iteration 1
DILUPBiCGStab:  Solving for H2, Initial residual = 0.06452298, Final residual = 9.763153e-12, No Iterations 145
Y: H2:0.5440008 -> 0.8982116
Constructing momentum equations
DICPCG:  Solving for p_rgh, Initial residual = 0.04450844, Final residual = 2.844969e-05, No Iterations 198
DICPCG:  Solving for p_rgh, Initial residual = 0.02399047, Final residual = 2.317517e-05, No Iterations 199
DICPCG:  Solving for p_rgh, Initial residual = 0.02142104, Final residual = 9.337922e-11, No Iterations 232

Solve for region phiEA:

GAMGPCG:  Solving for phi, Initial residual = 2.602037e-11, Final residual = 2.602037e-11, No Iterations 0

Solve for region phiEC:

GAMGPCG:  Solving for phi, Initial residual = 1, Final residual = 6.560233e-12, No Iterations 8

Solve for region phiI:

GAMG:  Solving for phi, Initial residual = 0.6420451, Final residual = 2.75771e-14, No Iterations 2

Map to cell 

Map air to Cell

Map fuel to Cell

Map electrolyte to Cell

Map interconnect to Cell

Map phiEA to Cell 

Map phiEC to Cell 

Map phiI to Cell 

Solving for temperature:

GAMGPBiCGStab:  Solving for T, Initial residual = 0.1361058, Final residual = 2.039252e-11, No Iterations 13
T: min = 807.5251, mean = 811.8748, max = 856.518
ExecutionTime = 19.48 s



Time = 0.016

Region: air Courant Number mean: 1.983784 max: 2
Region: fuel Courant Number mean: 0.001993243 max: 0.118

Map from cell 

Map air from Cell

Map fuel from Cell

Map electrolyte from Cell

Map interconnect from Cell

Map phiEA from Cell 

Map phiEC from Cell 

Map phiI from Cell 

Nernst air: min = -0.5115583, mean = -0.4877438, max = -0.4845552
Total current (A) at ccl: 1.690587

Correct diffusivity for specie: O2

Nernst fuel: min = -1.662436, mean = -1.603568, max = -1.584214
Total current (A) at acl: 0

Correct diffusivity for specie: H2

ibar: 21132.34	voltage: 1.083418

Solve for single phase flow:

Reading hRef
Calculating field g.h

Creating field dpdt

PIMPLE: iteration 1
DILUPBiCGStab:  Solving for O2, Initial residual = 0.09915952, Final residual = 8.867545e-10, No Iterations 25
Y: O2:0.1199352 -> 0.2298335
Constructing momentum equations
DICPCG:  Solving for p_rgh, Initial residual = 0.02349828, Final residual = 1.951675e-05, No Iterations 207
DICPCG:  Solving for p_rgh, Initial residual = 0.01781798, Final residual = 1.759471e-05, No Iterations 198
DICPCG:  Solving for p_rgh, Initial residual = 0.01011604, Final residual = 7.645169e-11, No Iterations 235

Solve for single phase flow:

Reading hRef
Calculating field g.h

Creating field dpdt

PIMPLE: iteration 1
DILUPBiCGStab:  Solving for H2, Initial residual = 0.05773605, Final residual = 6.209449e-12, No Iterations 158
Y: H2:0.555191 -> 0.8986928
Constructing momentum equations
DICPCG:  Solving for p_rgh, Initial residual = 0.05524648, Final residual = 3.445285e-05, No Iterations 198
DICPCG:  Solving for p_rgh, Initial residual = 0.03255161, Final residual = 3.147224e-05, No Iterations 199
DICPCG:  Solving for p_rgh, Initial residual = 0.0232593, Final residual = 9.723696e-11, No Iterations 232

Solve for region phiEA:

GAMGPCG:  Solving for phi, Initial residual = 2.602037e-11, Final residual = 2.602037e-11, No Iterations 0

Solve for region phiEC:

GAMGPCG:  Solving for phi, Initial residual = 0.9997266, Final residual = 6.180684e-12, No Iterations 8

Solve for region phiI:

GAMG:  Solving for phi, Initial residual = 0.9146708, Final residual = 6.832389e-15, No Iterations 2

Map to cell 

Map air to Cell

Map fuel to Cell

Map electrolyte to Cell

Map interconnect to Cell

Map phiEA to Cell 

Map phiEC to Cell 

Map phiI to Cell 

Solving for temperature:

GAMGPBiCGStab:  Solving for T, Initial residual = 0.4047851, Final residual = 3.705164e-11, No Iterations 12
T: min = 809.2647, mean = 816.7087, max = 858.1994
ExecutionTime = 20.91 s



Time = 0.017

Region: air Courant Number mean: 1.983784 max: 2
Region: fuel Courant Number mean: 0.001993243 max: 0.118

Map from cell 

Map air from Cell

Map fuel from Cell

Map electrolyte from Cell

Map interconnect from Cell

Map phiEA from Cell 

Map phiEC from Cell 

Map phiI from Cell 

Nernst air: min = -0.5118033, mean = -0.4884828, max = -0.484855
Total current (A) at ccl: 0.2841679

Correct diffusivity for specie: O2

Nernst fuel: min = -1.663659, mean = -1.60659, max = -1.586713
Total current (A) at acl: 0

Correct diffusivity for specie: H2

ibar: 3552.098	voltage: 1.214742

Solve for single phase flow:

Reading hRef
Calculating field g.h

Creating field dpdt

PIMPLE: iteration 1
DILUPBiCGStab:  Solving for O2, Initial residual = 0.1084604, Final residual = 8.106487e-10, No Iterations 26
Y: O2:0.123685 -> 0.2302133
Constructing momentum equations
DICPCG:  Solving for p_rgh, Initial residual = 0.06610544, Final residual = 5.578361e-05, No Iterations 200
DICPCG:  Solving for p_rgh, Initial residual = 0.008882182, Final residual = 8.113328e-06, No Iterations 200
DICPCG:  Solving for p_rgh, Initial residual = 0.004475011, Final residual = 8.002396e-11, No Iterations 232

Solve for single phase flow:

Reading hRef
Calculating field g.h

Creating field dpdt

PIMPLE: iteration 1
DILUPBiCGStab:  Solving for H2, Initial residual = 0.05293419, Final residual = 2.844434e-12, No Iterations 154
Y: H2:0.5640029 -> 0.8990477
Constructing momentum equations
DICPCG:  Solving for p_rgh, Initial residual = 0.04453933, Final residual = 4.453843e-05, No Iterations 197
DICPCG:  Solving for p_rgh, Initial residual = 0.01837887, Final residual = 1.711726e-05, No Iterations 199
DICPCG:  Solving for p_rgh, Initial residual = 0.01378484, Final residual = 7.132233e-11, No Iterations 231

Solve for region phiEA:

GAMGPCG:  Solving for phi, Initial residual = 2.602037e-11, Final residual = 2.602037e-11, No Iterations 0

Solve for region phiEC:

GAMGPCG:  Solving for phi, Initial residual = 0.8052757, Final residual = 7.320302e-11, No Iterations 7

Solve for region phiI:

GAMG:  Solving for phi, Initial residual = 0.6369461, Final residual = 2.797251e-14, No Iterations 2

Map to cell 

Map air to Cell

Map fuel to Cell

Map electrolyte to Cell

Map interconnect to Cell

Map phiEA to Cell 

Map phiEC to Cell 

Map phiI to Cell 

Solving for temperature:

GAMGPBiCGStab:  Solving for T, Initial residual = 0.5246211, Final residual = 2.007345e-11, No Iterations 13
T: min = 810.9424, mean = 817.333, max = 858.4705
ExecutionTime = 22.27 s



Time = 0.018

Region: air Courant Number mean: 1.983784 max: 2
Region: fuel Courant Number mean: 0.001993243 max: 0.118

Map from cell 

Map air from Cell

Map fuel from Cell

Map electrolyte from Cell

Map interconnect from Cell

Map phiEA from Cell 

Map phiEC from Cell 

Map phiI from Cell 

Nernst air: min = -0.512922, mean = -0.4928907, max = -0.4858848
Total current (A) at ccl: 0.0943908

Correct diffusivity for specie: O2

Nernst fuel: min = -1.668111, mean = -1.611693, max = -1.590152
Total current (A) at acl: 0

Correct diffusivity for specie: H2

ibar: 1179.885	voltage: 1.170263

Solve for single phase flow:

Reading hRef
Calculating field g.h

Creating field dpdt

PIMPLE: iteration 1
DILUPBiCGStab:  Solving for O2, Initial residual = 0.0498385, Final residual = 8.450948e-10, No Iterations 25
Y: O2:0.1266239 -> 0.2299586
Constructing momentum equations
DICPCG:  Solving for p_rgh, Initial residual = 0.02906276, Final residual = 2.23514e-05, No Iterations 180
DICPCG:  Solving for p_rgh, Initial residual = 0.004899124, Final residual = 3.32608e-06, No Iterations 204
DICPCG:  Solving for p_rgh, Initial residual = 0.003228873, Final residual = 7.887526e-11, No Iterations 235

Solve for single phase flow:

Reading hRef
Calculating field g.h

Creating field dpdt

PIMPLE: iteration 1
DILUPBiCGStab:  Solving for H2, Initial residual = 0.04940777, Final residual = 9.749579e-12, No Iterations 135
Y: H2:0.5704275 -> 0.8992871
Constructing momentum equations
DICPCG:  Solving for p_rgh, Initial residual = 0.0257218, Final residual = 1.725704e-05, No Iterations 198
DICPCG:  Solving for p_rgh, Initial residual = 0.01217642, Final residual = 1.075162e-05, No Iterations 199
DICPCG:  Solving for p_rgh, Initial residual = 0.009499034, Final residual = 9.967199e-11, No Iterations 230

Solve for region phiEA:

GAMGPCG:  Solving for phi, Initial residual = 2.602037e-11, Final residual = 2.602037e-11, No Iterations 0

Solve for region phiEC:

GAMGPCG:  Solving for phi, Initial residual = 0.9745154, Final residual = 6.446418e-12, No Iterations 8

Solve for region phiI:

GAMG:  Solving for phi, Initial residual = 0.2866474, Final residual = 3.767473e-14, No Iterations 2

Map to cell 

Map air to Cell

Map fuel to Cell

Map electrolyte to Cell

Map interconnect to Cell

Map phiEA to Cell 

Map phiEC to Cell 

Map phiI to Cell 

Solving for temperature:

GAMGPBiCGStab:  Solving for T, Initial residual = 0.168308, Final residual = 4.49302e-11, No Iterations 13
T: min = 812.1997, mean = 817.6761, max = 858.4456
ExecutionTime = 23.65 s



Time = 0.019

Region: air Courant Number mean: 1.983784 max: 2
Region: fuel Courant Number mean: 0.001993243 max: 0.118

Map from cell 

Map air from Cell

Map fuel from Cell

Map electrolyte from Cell

Map interconnect from Cell

Map phiEA from Cell 

Map phiEC from Cell 

Map phiI from Cell 

Nernst air: min = -0.5130268, mean = -0.4925141, max = -0.4869409
Total current (A) at ccl: 0.6598651

Correct diffusivity for specie: O2

Nernst fuel: min = -1.667804, mean = -1.614567, max = -1.591905
Total current (A) at acl: 0

Correct diffusivity for specie: H2

ibar: 8248.313	voltage: 1.102062

Solve for single phase flow:

Reading hRef
Calculating field g.h

Creating field dpdt

PIMPLE: iteration 1
DILUPBiCGStab:  Solving for O2, Initial residual = 0.05134635, Final residual = 8.92143e-10, No Iterations 23
Y: O2:0.1217414 -> 0.2300578
Constructing momentum equations
DICPCG:  Solving for p_rgh, Initial residual = 0.01034699, Final residual = 9.925293e-06, No Iterations 204
DICPCG:  Solving for p_rgh, Initial residual = 0.01057998, Final residual = 6.523869e-06, No Iterations 204
DICPCG:  Solving for p_rgh, Initial residual = 0.006761882, Final residual = 9.542989e-11, No Iterations 236

Solve for single phase flow:

Reading hRef
Calculating field g.h

Creating field dpdt

PIMPLE: iteration 1
DILUPBiCGStab:  Solving for H2, Initial residual = 0.0479235, Final residual = 7.800269e-12, No Iterations 139
Y: H2:0.5742301 -> 0.8994655
Constructing momentum equations
DICPCG:  Solving for p_rgh, Initial residual = 0.01710048, Final residual = 1.177258e-05, No Iterations 198
DICPCG:  Solving for p_rgh, Initial residual = 0.008597535, Final residual = 7.476116e-06, No Iterations 199
DICPCG:  Solving for p_rgh, Initial residual = 0.00684074, Final residual = 7.434331e-11, No Iterations 230

Solve for region phiEA:

GAMGPCG:  Solving for phi, Initial residual = 2.602037e-11, Final residual = 2.602037e-11, No Iterations 0

Solve for region phiEC:

GAMGPCG:  Solving for phi, Initial residual = 0.9953369, Final residual = 1.188423e-11, No Iterations 8

Solve for region phiI:

GAMG:  Solving for phi, Initial residual = 0.8081508, Final residual = 1.503963e-14, No Iterations 2

Map to cell 

Map air to Cell

Map fuel to Cell

Map electrolyte to Cell

Map interconnect to Cell

Map phiEA to Cell 

Map phiEC to Cell 

Map phiI to Cell 

Solving for temperature:

GAMGPBiCGStab:  Solving for T, Initial residual = 0.2021225, Final residual = 7.28476e-11, No Iterations 12
T: min = 813.709, mean = 819.5488, max = 858.956
ExecutionTime = 25.13 s



Time = 0.02

Region: air Courant Number mean: 1.983784 max: 2
Region: fuel Courant Number mean: 0.001993243 max: 0.118

Map from cell 

Map air from Cell

Map fuel from Cell

Map electrolyte from Cell

Map interconnect from Cell

Map phiEA from Cell 

Map phiEC from Cell 

Map phiI from Cell 

Nernst air: min = -0.5130431, mean = -0.4922999, max = -0.487722
Total current (A) at ccl: 0.7961397

Correct diffusivity for specie: O2

Nernst fuel: min = -1.667652, mean = -1.617414, max = -1.593086
Total current (A) at acl: 0.0003720664

Correct diffusivity for specie: H2

ibar: 9951.746	voltage: 1.104545

Solve for single phase flow:

Reading hRef
Calculating field g.h

Creating field dpdt

PIMPLE: iteration 1
DILUPBiCGStab:  Solving for O2, Initial residual = 0.03000395, Final residual = 8.16813e-10, No Iterations 23
Y: O2:0.1172945 -> 0.2299278
Constructing momentum equations
DICPCG:  Solving for p_rgh, Initial residual = 0.04154553, Final residual = 3.237782e-05, No Iterations 201
DICPCG:  Solving for p_rgh, Initial residual = 0.005291416, Final residual = 3.917845e-06, No Iterations 196
DICPCG:  Solving for p_rgh, Initial residual = 0.003089791, Final residual = 9.09747e-11, No Iterations 235

Solve for single phase flow:

Reading hRef
Calculating field g.h

Creating field dpdt

PIMPLE: iteration 1
DILUPBiCGStab:  Solving for H2, Initial residual = 0.04855986, Final residual = 6.126259e-12, No Iterations 145
Y: H2:0.5780419 -> 0.8995558
Constructing momentum equations
DICPCG:  Solving for p_rgh, Initial residual = 0.01207003, Final residual = 1.084392e-05, No Iterations 200
DICPCG:  Solving for p_rgh, Initial residual = 0.006225886, Final residual = 4.898577e-06, No Iterations 199
DICPCG:  Solving for p_rgh, Initial residual = 0.004956843, Final residual = 8.628811e-11, No Iterations 229

Solve for region phiEA:

GAMGPCG:  Solving for phi, Initial residual = 1, Final residual = 5.996941e-11, No Iterations 11

Solve for region phiEC:

GAMGPCG:  Solving for phi, Initial residual = 0.9957935, Final residual = 6.449653e-12, No Iterations 8

Solve for region phiI:

GAMG:  Solving for phi, Initial residual = 0.8356462, Final residual = 1.313815e-14, No Iterations 2

Map to cell 

Map air to Cell

Map fuel to Cell

Map electrolyte to Cell

Map interconnect to Cell

Map phiEA to Cell 

Map phiEC to Cell 

Map phiI to Cell 

Solving for temperature:

GAMGPBiCGStab:  Solving for T, Initial residual = 0.1952086, Final residual = 4.750567e-12, No Iterations 13
T: min = 815.3206, mean = 821.7128, max = 859.6321
ExecutionTime = 26.56 s



Time = 0.021

Region: air Courant Number mean: 1.983784 max: 2
Region: fuel Courant Number mean: 0.001993243 max: 0.118

Map from cell 

Map air from Cell

Map fuel from Cell

Map electrolyte from Cell

Map interconnect from Cell

Map phiEA from Cell 

Map phiEC from Cell 

Map phiI from Cell 

Nernst air: min = -0.5133751, mean = -0.4937721, max = -0.4885138
Total current (A) at ccl: 0.4399937

Correct diffusivity for specie: O2

Nernst fuel: min = -1.669068, mean = -1.621152, max = -1.594524
Total current (A) at acl: 0.03874953

Correct diffusivity for specie: H2

ibar: 5499.921	voltage: 1.124062

Solve for single phase flow:

Reading hRef
Calculating field g.h

Creating field dpdt

PIMPLE: iteration 1
DILUPBiCGStab:  Solving for O2, Initial residual = 0.03390681, Final residual = 8.192315e-10, No Iterations 24
Y: O2:0.1183017 -> 0.2300963
Constructing momentum equations
DICPCG:  Solving for p_rgh, Initial residual = 0.01033769, Final residual = 9.64458e-06, No Iterations 205
DICPCG:  Solving for p_rgh, Initial residual = 0.003467486, Final residual = 3.458919e-06, No Iterations 200
DICPCG:  Solving for p_rgh, Initial residual = 0.001933042, Final residual = 6.105378e-11, No Iterations 234

Solve for single phase flow:

Reading hRef
Calculating field g.h

Creating field dpdt

PIMPLE: iteration 1
DILUPBiCGStab:  Solving for H2, Initial residual = 0.05803003, Final residual = 8.086516e-12, No Iterations 158
Y: H2:0.5851879 -> 0.8971339
Constructing momentum equations
DICPCG:  Solving for p_rgh, Initial residual = 0.03413141, Final residual = 2.644307e-05, No Iterations 201
DICPCG:  Solving for p_rgh, Initial residual = 0.005997034, Final residual = 5.269901e-06, No Iterations 193
DICPCG:  Solving for p_rgh, Initial residual = 0.003658846, Final residual = 7.238836e-11, No Iterations 225

Solve for region phiEA:

GAMGPCG:  Solving for phi, Initial residual = 0.4534188, Final residual = 3.568976e-11, No Iterations 11

Solve for region phiEC:

GAMGPCG:  Solving for phi, Initial residual = 0.8299648, Final residual = 8.134951e-11, No Iterations 7

Solve for region phiI:

GAMG:  Solving for phi, Initial residual = 0.7182817, Final residual = 2.237078e-14, No Iterations 2

Map to cell 

Map air to Cell

Map fuel to Cell

Map electrolyte to Cell

Map interconnect to Cell

Map phiEA to Cell 

Map phiEC to Cell 

Map phiI to Cell 

Solving for temperature:

GAMGPBiCGStab:  Solving for T, Initial residual = 0.2502333, Final residual = 7.647276e-11, No Iterations 12
T: min = 816.8939, mean = 822.8394, max = 859.8947
ExecutionTime = 27.98 s



Time = 0.022

Region: air Courant Number mean: 1.983784 max: 2
Region: fuel Courant Number mean: 0.001993243 max: 0.118

Map from cell 

Map air from Cell

Map fuel from Cell

Map electrolyte from Cell

Map interconnect from Cell

Map phiEA from Cell 

Map phiEC from Cell 

Map phiI from Cell 

Nernst air: min = -0.513821, mean = -0.4953254, max = -0.4894609
Total current (A) at ccl: 0.4311654

Correct diffusivity for specie: O2

Nernst fuel: min = -1.6704, mean = -1.625059, max = -1.595749
Total current (A) at acl: 0.115764

Correct diffusivity for specie: H2

ibar: 5389.568	voltage: 1.099061

Solve for single phase flow:

Reading hRef
Calculating field g.h

Creating field dpdt

PIMPLE: iteration 1
DILUPBiCGStab:  Solving for O2, Initial residual = 0.02412052, Final residual = 8.652256e-10, No Iterations 21
Y: O2:0.1188083 -> 0.2299401
Constructing momentum equations
DICPCG:  Solving for p_rgh, Initial residual = 0.01172318, Final residual = 1.057884e-05, No Iterations 202
DICPCG:  Solving for p_rgh, Initial residual = 0.001842416, Final residual = 1.773906e-06, No Iterations 205
DICPCG:  Solving for p_rgh, Initial residual = 0.001161132, Final residual = 8.775536e-11, No Iterations 231

Solve for single phase flow:

Reading hRef
Calculating field g.h

Creating field dpdt

PIMPLE: iteration 1
DILUPBiCGStab:  Solving for H2, Initial residual = 0.1392951, Final residual = 5.65176e-12, No Iterations 167
Y: H2:0.5982322 -> 0.8800374
Constructing momentum equations
DICPCG:  Solving for p_rgh, Initial residual = 0.02123113, Final residual = 1.369874e-05, No Iterations 196
DICPCG:  Solving for p_rgh, Initial residual = 0.004936541, Final residual = 4.935618e-06, No Iterations 189
DICPCG:  Solving for p_rgh, Initial residual = 0.003080777, Final residual = 9.842314e-11, No Iterations 222

Solve for region phiEA:

GAMGPCG:  Solving for phi, Initial residual = 0.01857198, Final residual = 9.39983e-11, No Iterations 9

Solve for region phiEC:

GAMGPCG:  Solving for phi, Initial residual = 0.901641, Final residual = 9.521606e-11, No Iterations 7

Solve for region phiI:

GAMG:  Solving for phi, Initial residual = 0.668264, Final residual = 2.630285e-14, No Iterations 2

Map to cell 

Map air to Cell

Map fuel to Cell

Map electrolyte to Cell

Map interconnect to Cell

Map phiEA to Cell 

Map phiEC to Cell 

Map phiI to Cell 

Solving for temperature:

GAMGPBiCGStab:  Solving for T, Initial residual = 0.1322058, Final residual = 3.378136e-11, No Iterations 12
T: min = 818.0005, mean = 823.8948, max = 860.0614
ExecutionTime = 29.37 s



Time = 0.023

Region: air Courant Number mean: 1.983784 max: 2
Region: fuel Courant Number mean: 0.001993243 max: 0.118

Map from cell 

Map air from Cell

Map fuel from Cell

Map electrolyte from Cell

Map interconnect from Cell

Map phiEA from Cell 

Map phiEC from Cell 

Map phiI from Cell 

Nernst air: min = -0.5139736, mean = -0.4957408, max = -0.4903708
Total current (A) at ccl: 0.6293863

Correct diffusivity for specie: O2

Nernst fuel: min = -1.668923, mean = -1.628012, max = -1.596903
Total current (A) at acl: 0.2022225

Correct diffusivity for specie: H2

ibar: 7867.329	voltage: 1.072957

Solve for single phase flow:

Reading hRef
Calculating field g.h

Creating field dpdt

PIMPLE: iteration 1
DILUPBiCGStab:  Solving for O2, Initial residual = 0.02702706, Final residual = 5.66261e-10, No Iterations 22
Y: O2:0.1170696 -> 0.2300718
Constructing momentum equations
DICPCG:  Solving for p_rgh, Initial residual = 0.004569377, Final residual = 3.689116e-06, No Iterations 206
DICPCG:  Solving for p_rgh, Initial residual = 0.003002025, Final residual = 2.978243e-06, No Iterations 203
DICPCG:  Solving for p_rgh, Initial residual = 0.001812358, Final residual = 8.460402e-11, No Iterations 233

Solve for single phase flow:

Reading hRef
Calculating field g.h

Creating field dpdt

PIMPLE: iteration 1
DILUPBiCGStab:  Solving for H2, Initial residual = 0.2412953, Final residual = 6.793631e-12, No Iterations 161
Y: H2:0.6232306 -> 0.8612029
Constructing momentum equations
DICPCG:  Solving for p_rgh, Initial residual = 0.01712079, Final residual = 1.613521e-05, No Iterations 192
DICPCG:  Solving for p_rgh, Initial residual = 0.003892348, Final residual = 3.61759e-06, No Iterations 185
DICPCG:  Solving for p_rgh, Initial residual = 0.002498726, Final residual = 7.726774e-11, No Iterations 221

Solve for region phiEA:

GAMGPCG:  Solving for phi, Initial residual = 0.007115288, Final residual = 2.693844e-11, No Iterations 9

Solve for region phiEC:

GAMGPCG:  Solving for phi, Initial residual = 0.3234714, Final residual = 2.231214e-11, No Iterations 8

Solve for region phiI:

GAMG:  Solving for phi, Initial residual = 0.732328, Final residual = 2.138433e-14, No Iterations 2

Map to cell 

Map air to Cell

Map fuel to Cell

Map electrolyte to Cell

Map interconnect to Cell

Map phiEA to Cell 

Map phiEC to Cell 

Map phiI to Cell 

Solving for temperature:

GAMGPBiCGStab:  Solving for T, Initial residual = 0.1726348, Final residual = 4.513378e-11, No Iterations 12
T: min = 819.6423, mean = 825.4097, max = 860.3779
ExecutionTime = 30.84 s



Time = 0.024

Region: air Courant Number mean: 1.983784 max: 2
Region: fuel Courant Number mean: 0.001993243 max: 0.118

Map from cell 

Map air from Cell

Map fuel from Cell

Map electrolyte from Cell

Map interconnect from Cell

Map phiEA from Cell 

Map phiEC from Cell 

Map phiI from Cell 

Nernst air: min = -0.5140998, mean = -0.4962304, max = -0.4911923
Total current (A) at ccl: 0.6411575

Correct diffusivity for specie: O2

Nernst fuel: min = -1.665135, mean = -1.628889, max = -1.598546
Total current (A) at acl: 0.2735548

Correct diffusivity for specie: H2

ibar: 8014.468	voltage: 1.07163

Solve for single phase flow:

Reading hRef
Calculating field g.h

Creating field dpdt

PIMPLE: iteration 1
DILUPBiCGStab:  Solving for O2, Initial residual = 0.02124501, Final residual = 6.008373e-10, No Iterations 22
Y: O2:0.1159752 -> 0.2299318
Constructing momentum equations
DICPCG:  Solving for p_rgh, Initial residual = 0.009816752, Final residual = 8.233737e-06, No Iterations 202
DICPCG:  Solving for p_rgh, Initial residual = 0.001324595, Final residual = 1.235511e-06, No Iterations 204
DICPCG:  Solving for p_rgh, Initial residual = 0.0007901099, Final residual = 7.902052e-11, No Iterations 233

Solve for single phase flow:

Reading hRef
Calculating field g.h

Creating field dpdt

PIMPLE: iteration 1
DILUPBiCGStab:  Solving for H2, Initial residual = 0.2744513, Final residual = 7.787707e-12, No Iterations 161
Y: H2:0.5271334 -> 0.8465559
Constructing momentum equations
DICPCG:  Solving for p_rgh, Initial residual = 0.01630223, Final residual = 1.610626e-05, No Iterations 193
DICPCG:  Solving for p_rgh, Initial residual = 0.00398005, Final residual = 2.69114e-06, No Iterations 193
DICPCG:  Solving for p_rgh, Initial residual = 0.002511593, Final residual = 7.254442e-11, No Iterations 222

Solve for region phiEA:

GAMGPCG:  Solving for phi, Initial residual = 0.003432268, Final residual = 1.36607e-11, No Iterations 9

Solve for region phiEC:

GAMGPCG:  Solving for phi, Initial residual = 0.03678978, Final residual = 1.586943e-11, No Iterations 7

Solve for region phiI:

GAMG:  Solving for phi, Initial residual = 0.7003321, Final residual = 2.362069e-14, No Iterations 2

Map to cell 

Map air to Cell

Map fuel to Cell

Map electrolyte to Cell

Map interconnect to Cell

Map phiEA to Cell 

Map phiEC to Cell 

Map phiI to Cell 

Solving for temperature:

GAMGPBiCGStab:  Solving for T, Initial residual = 0.1535309, Final residual = 6.966831e-11, No Iterations 12
T: min = 821.1964, mean = 826.8407, max = 860.7147
ExecutionTime = 32.28 s



Time = 0.025

Region: air Courant Number mean: 1.983784 max: 2
Region: fuel Courant Number mean: 0.001993243 max: 0.118

Map from cell 

Map air from Cell

Map fuel from Cell

Map electrolyte from Cell

Map interconnect from Cell

Map phiEA from Cell 

Map phiEC from Cell 

Map phiI from Cell 

Nernst air: min = -0.5142977, mean = -0.4972401, max = -0.4920229
Total current (A) at ccl: 0.5484222

Correct diffusivity for specie: O2

Nernst fuel: min = -1.659858, mean = -1.627646, max = -1.601371
Total current (A) at acl: 0.314818

Correct diffusivity for specie: H2

ibar: 6855.277	voltage: 1.071775

Solve for single phase flow:

Reading hRef
Calculating field g.h

Creating field dpdt

PIMPLE: iteration 1
DILUPBiCGStab:  Solving for O2, Initial residual = 0.02319487, Final residual = 6.406028e-10, No Iterations 23
Y: O2:0.1162799 -> 0.2300877
Constructing momentum equations
DICPCG:  Solving for p_rgh, Initial residual = 0.002931407, Final residual = 2.590155e-06, No Iterations 205
DICPCG:  Solving for p_rgh, Initial residual = 0.001201313, Final residual = 9.405221e-07, No Iterations 204
DICPCG:  Solving for p_rgh, Initial residual = 0.0007086926, Final residual = 8.797578e-11, No Iterations 231

Solve for single phase flow:

Reading hRef
Calculating field g.h

Creating field dpdt

PIMPLE: iteration 1
DILUPBiCGStab:  Solving for H2, Initial residual = 0.2323789, Final residual = 8.677219e-12, No Iterations 158
Y: H2:0.4427816 -> 0.8394563
Constructing momentum equations
DICPCG:  Solving for p_rgh, Initial residual = 0.02371743, Final residual = 1.477524e-05, No Iterations 192
DICPCG:  Solving for p_rgh, Initial residual = 0.00777298, Final residual = 4.96061e-06, No Iterations 189
DICPCG:  Solving for p_rgh, Initial residual = 0.005031173, Final residual = 9.562143e-11, No Iterations 222

Solve for region phiEA:

GAMGPCG:  Solving for phi, Initial residual = 0.003071813, Final residual = 1.109991e-11, No Iterations 9

Solve for region phiEC:

GAMGPCG:  Solving for phi, Initial residual = 0.7336609, Final residual = 7.502858e-11, No Iterations 7

Solve for region phiI:

GAMG:  Solving for phi, Initial residual = 0.5888415, Final residual = 3.107789e-14, No Iterations 2

Map to cell 

Map air to Cell

Map fuel to Cell

Map electrolyte to Cell

Map interconnect to Cell

Map phiEA to Cell 

Map phiEC to Cell 

Map phiI to Cell 

Solving for temperature:

GAMGPBiCGStab:  Solving for T, Initial residual = 0.1581164, Final residual = 2.606331e-11, No Iterations 12
T: min = 822.5987, mean = 827.9688, max = 860.9829
ExecutionTime = 33.58 s



Time = 0.026

Region: air Courant Number mean: 1.983784 max: 2
Region: fuel Courant Number mean: 0.001993243 max: 0.118

Map from cell 

Map air from Cell

Map fuel from Cell

Map electrolyte from Cell

Map interconnect from Cell

Map phiEA from Cell 

Map phiEC from Cell 

Map phiI from Cell 

Nernst air: min = -0.5145264, mean = -0.4981106, max = -0.4928632
Total current (A) at ccl: 0.5644733

Correct diffusivity for specie: O2

Nernst fuel: min = -1.655397, mean = -1.622478, max = -1.60601
Total current (A) at acl: 0.3161931

Correct diffusivity for specie: H2

ibar: 7055.917	voltage: 1.060328

Solve for single phase flow:

Reading hRef
Calculating field g.h

Creating field dpdt

PIMPLE: iteration 1
DILUPBiCGStab:  Solving for O2, Initial residual = 0.02115629, Final residual = 9.325232e-10, No Iterations 22
Y: O2:0.1163843 -> 0.22993
Constructing momentum equations
DICPCG:  Solving for p_rgh, Initial residual = 0.004052521, Final residual = 3.563696e-06, No Iterations 203
DICPCG:  Solving for p_rgh, Initial residual = 0.0006240197, Final residual = 5.38353e-07, No Iterations 205
DICPCG:  Solving for p_rgh, Initial residual = 0.0003737103, Final residual = 7.588181e-11, No Iterations 229

Solve for single phase flow:

Reading hRef
Calculating field g.h

Creating field dpdt

PIMPLE: iteration 1
DILUPBiCGStab:  Solving for H2, Initial residual = 0.191052, Final residual = 8.471331e-12, No Iterations 136
Y: H2:0.3861621 -> 0.8390591
Constructing momentum equations
DICPCG:  Solving for p_rgh, Initial residual = 0.04203106, Final residual = 2.84246e-05, No Iterations 195
DICPCG:  Solving for p_rgh, Initial residual = 0.02056839, Final residual = 1.448057e-05, No Iterations 189
DICPCG:  Solving for p_rgh, Initial residual = 0.01375397, Final residual = 7.251107e-11, No Iterations 226

Solve for region phiEA:

GAMGPCG:  Solving for phi, Initial residual = 0.003648042, Final residual = 1.321068e-11, No Iterations 9

Solve for region phiEC:

GAMGPCG:  Solving for phi, Initial residual = 0.725953, Final residual = 7.694886e-11, No Iterations 7

Solve for region phiI:

GAMG:  Solving for phi, Initial residual = 0.6036294, Final residual = 3.003797e-14, No Iterations 2

Map to cell 

Map air to Cell

Map fuel to Cell

Map electrolyte to Cell

Map interconnect to Cell

Map phiEA to Cell 

Map phiEC to Cell 

Map phiI to Cell 

Solving for temperature:

GAMGPBiCGStab:  Solving for T, Initial residual = 0.1410498, Final residual = 7.039644e-11, No Iterations 11
T: min = 823.8828, mean = 829.1475, max = 861.2964
ExecutionTime = 34.94 s



Time = 0.027

Region: air Courant Number mean: 1.983784 max: 2
Region: fuel Courant Number mean: 0.001993243 max: 0.118

Map from cell 

Map air from Cell

Map fuel from Cell

Map electrolyte from Cell

Map interconnect from Cell

Map phiEA from Cell 

Map phiEC from Cell 

Map phiI from Cell 

Nernst air: min = -0.514688, mean = -0.4986719, max = -0.4936394
Total current (A) at ccl: 0.6140512

Correct diffusivity for specie: O2

Nernst fuel: min = -1.652623, mean = -1.613271, max = -1.594395
Total current (A) at acl: 0.3020334

Correct diffusivity for specie: H2

ibar: 7675.64	voltage: 1.050887

Solve for single phase flow:

Reading hRef
Calculating field g.h

Creating field dpdt

PIMPLE: iteration 1
DILUPBiCGStab:  Solving for O2, Initial residual = 0.02098937, Final residual = 8.636827e-10, No Iterations 26
Y: O2:0.1161517 -> 0.2300857
Constructing momentum equations
DICPCG:  Solving for p_rgh, Initial residual = 0.002027821, Final residual = 1.666299e-06, No Iterations 194
DICPCG:  Solving for p_rgh, Initial residual = 0.0008454397, Final residual = 6.756368e-07, No Iterations 206
DICPCG:  Solving for p_rgh, Initial residual = 0.000521143, Final residual = 9.508634e-11, No Iterations 230

Solve for single phase flow:

Reading hRef
Calculating field g.h

Creating field dpdt

PIMPLE: iteration 1
DILUPBiCGStab:  Solving for H2, Initial residual = 0.1908814, Final residual = 2.201453e-12, No Iterations 158
Y: H2:0.3500411 -> 0.8430757
Constructing momentum equations
DICPCG:  Solving for p_rgh, Initial residual = 0.09052961, Final residual = 7.647425e-05, No Iterations 196
DICPCG:  Solving for p_rgh, Initial residual = 0.06770929, Final residual = 5.664867e-05, No Iterations 190
DICPCG:  Solving for p_rgh, Initial residual = 0.0446408, Final residual = 9.28843e-11, No Iterations 229

Solve for region phiEA:

GAMGPCG:  Solving for phi, Initial residual = 0.004713336, Final residual = 1.532902e-11, No Iterations 9

Solve for region phiEC:

GAMGPCG:  Solving for phi, Initial residual = 0.4692668, Final residual = 5.432558e-11, No Iterations 7

Solve for region phiI:

GAMG:  Solving for phi, Initial residual = 0.658628, Final residual = 2.619805e-14, No Iterations 2

Map to cell 

Map air to Cell

Map fuel to Cell

Map electrolyte to Cell

Map interconnect to Cell

Map phiEA to Cell 

Map phiEC to Cell 

Map phiI to Cell 

Solving for temperature:

GAMGPBiCGStab:  Solving for T, Initial residual = 0.1572807, Final residual = 1.261466e-11, No Iterations 13
T: min = 825.3321, mean = 830.4826, max = 861.6925
ExecutionTime = 36.52 s



Time = 0.028

Region: air Courant Number mean: 1.983784 max: 2
Region: fuel Courant Number mean: 0.001993243 max: 0.118

Map from cell 

Map air from Cell

Map fuel from Cell

Map electrolyte from Cell

Map interconnect from Cell

Map phiEA from Cell 

Map phiEC from Cell 

Map phiI from Cell 

Nernst air: min = -0.5149073, mean = -0.49931, max = -0.4943745
Total current (A) at ccl: 0.5962349

Correct diffusivity for specie: O2

Nernst fuel: min = -1.651926, mean = -1.603011, max = -1.581935
Total current (A) at acl: 0.2635782

Correct diffusivity for specie: H2

ibar: 7452.937	voltage: 1.047643

Solve for single phase flow:

Reading hRef
Calculating field g.h

Creating field dpdt

PIMPLE: iteration 1
DILUPBiCGStab:  Solving for O2, Initial residual = 0.02113849, Final residual = 8.500359e-10, No Iterations 23
Y: O2:0.116454 -> 0.2299304
Constructing momentum equations
DICPCG:  Solving for p_rgh, Initial residual = 0.002564996, Final residual = 2.046111e-06, No Iterations 205
DICPCG:  Solving for p_rgh, Initial residual = 0.0004617579, Final residual = 4.200011e-07, No Iterations 206
DICPCG:  Solving for p_rgh, Initial residual = 0.0002703408, Final residual = 8.946816e-11, No Iterations 228

Solve for single phase flow:

Reading hRef
Calculating field g.h

Creating field dpdt

PIMPLE: iteration 1
DILUPBiCGStab:  Solving for H2, Initial residual = 0.1974653, Final residual = 6.998543e-12, No Iterations 162
Y: H2:0.3274703 -> 0.84768
Constructing momentum equations
DICPCG:  Solving for p_rgh, Initial residual = 0.2200288, Final residual = 0.0001605291, No Iterations 197
DICPCG:  Solving for p_rgh, Initial residual = 0.02392585, Final residual = 1.84002e-05, No Iterations 190
DICPCG:  Solving for p_rgh, Initial residual = 0.01705562, Final residual = 6.309526e-11, No Iterations 228

Solve for region phiEA:

GAMGPCG:  Solving for phi, Initial residual = 0.004007518, Final residual = 7.579346e-11, No Iterations 8

Solve for region phiEC:

GAMGPCG:  Solving for phi, Initial residual = 0.5780735, Final residual = 6.029131e-11, No Iterations 7

Solve for region phiI:

GAMG:  Solving for phi, Initial residual = 0.6707961, Final residual = 2.498727e-14, No Iterations 2

Map to cell 

Map air to Cell

Map fuel to Cell

Map electrolyte to Cell

Map interconnect to Cell

Map phiEA to Cell 

Map phiEC to Cell 

Map phiI to Cell 

Solving for temperature:

GAMGPBiCGStab:  Solving for T, Initial residual = 0.150239, Final residual = 5.344624e-11, No Iterations 13
T: min = 826.6679, mean = 831.8018, max = 862.088
ExecutionTime = 38.62 s



Time = 0.029

Region: air Courant Number mean: 1.983784 max: 2
Region: fuel Courant Number mean: 0.001993243 max: 0.118

Map from cell 

Map air from Cell

Map fuel from Cell

Map electrolyte from Cell

Map interconnect from Cell

Map phiEA from Cell 

Map phiEC from Cell 

Map phiI from Cell 

[...]
Y: O2:0.1694683 -> 0.2301487
Constructing momentum equations
DICPCG:  Solving for p_rgh, Initial residual = 5.45147e-06, Final residual = 4.572927e-09, No Iterations 211
DICPCG:  Solving for p_rgh, Initial residual = 2.358383e-06, Final residual = 2.071524e-09, No Iterations 206
DICPCG:  Solving for p_rgh, Initial residual = 1.298859e-06, Final residual = 9.98636e-11, No Iterations 216

Solve for single phase flow:

Reading hRef
Calculating field g.h

Creating field dpdt

PIMPLE: iteration 1
DILUPBiCGStab:  Solving for H2, Initial residual = 4.555074e-06, Final residual = 6.876382e-12, No Iterations 134
Y: H2:0.09704742 -> 0.831229
Constructing momentum equations
DICPCG:  Solving for p_rgh, Initial residual = 1.003719e-06, Final residual = 6.981797e-10, No Iterations 197
DICPCG:  Solving for p_rgh, Initial residual = 3.763931e-07, Final residual = 3.483259e-10, No Iterations 192
DICPCG:  Solving for p_rgh, Initial residual = 2.364296e-07, Final residual = 6.772023e-11, No Iterations 198

Solve for region phiEA:

GAMGPCG:  Solving for phi, Initial residual = 1.375117e-07, Final residual = 4.422703e-11, No Iterations 4

Solve for region phiEC:

GAMGPCG:  Solving for phi, Initial residual = 0.0008476481, Final residual = 4.786689e-11, No Iterations 5

Solve for region phiI:

GAMG:  Solving for phi, Initial residual = 9.594731e-05, Final residual = 1.300415e-14, No Iterations 1

Map to cell 

Map air to Cell

Map fuel to Cell

Map electrolyte to Cell

Map interconnect to Cell

Map phiEA to Cell 

Map phiEC to Cell 

Map phiI to Cell 

Solving for temperature:

GAMGPBiCGStab:  Solving for T, Initial residual = 0.0003669767, Final residual = 2.773339e-11, No Iterations 8
T: min = 961.4906, mean = 1141.737, max = 1152.526
ExecutionTime = 1934.81 s



Time = 1.494

Region: air Courant Number mean: 1.983784 max: 2
Region: fuel Courant Number mean: 0.001993243 max: 0.118

Map from cell 

Map air from Cell

Map fuel from Cell

Map electrolyte from Cell

Map interconnect from Cell

Map phiEA from Cell 

Map phiEC from Cell 

Map phiI from Cell 

Nernst air: min = -0.7159808, mean = -0.7058034, max = -0.5807191
Total current (A) at ccl: 0.6399673

Correct diffusivity for specie: O2

Nernst fuel: min = -1.797316, mean = -1.660871, max = -1.621163
Total current (A) at acl: 0.6400996

Correct diffusivity for specie: H2

ibar: 7999.591	voltage: 0.8077521

Solve for single phase flow:

Reading hRef
Calculating field g.h

Creating field dpdt

PIMPLE: iteration 1
DILUPBiCGStab:  Solving for O2, Initial residual = 0.0007064667, Final residual = 8.467638e-10, No Iterations 19
Y: O2:0.1694733 -> 0.2298252
Constructing momentum equations
DICPCG:  Solving for p_rgh, Initial residual = 4.958687e-06, Final residual = 4.333219e-09, No Iterations 210
DICPCG:  Solving for p_rgh, Initial residual = 2.141112e-06, Final residual = 1.980452e-09, No Iterations 207
DICPCG:  Solving for p_rgh, Initial residual = 1.176957e-06, Final residual = 8.411293e-11, No Iterations 216

Solve for single phase flow:

Reading hRef
Calculating field g.h

Creating field dpdt

PIMPLE: iteration 1
DILUPBiCGStab:  Solving for H2, Initial residual = 4.554083e-06, Final residual = 5.379021e-12, No Iterations 136
Y: H2:0.09704692 -> 0.8312303
Constructing momentum equations
DICPCG:  Solving for p_rgh, Initial residual = 9.790066e-07, Final residual = 8.256771e-10, No Iterations 197
DICPCG:  Solving for p_rgh, Initial residual = 3.859344e-07, Final residual = 3.487202e-10, No Iterations 191
DICPCG:  Solving for p_rgh, Initial residual = 2.422076e-07, Final residual = 9.605137e-11, No Iterations 197

Solve for region phiEA:

GAMGPCG:  Solving for phi, Initial residual = 1.363228e-07, Final residual = 4.372962e-11, No Iterations 4

Solve for region phiEC:

GAMGPCG:  Solving for phi, Initial residual = 0.000982897, Final residual = 4.940157e-11, No Iterations 5

Solve for region phiI:

GAMG:  Solving for phi, Initial residual = 9.885536e-05, Final residual = 1.312878e-14, No Iterations 1

Map to cell 

Map air to Cell

Map fuel to Cell

Map electrolyte to Cell

Map interconnect to Cell

Map phiEA to Cell 

Map phiEC to Cell 

Map phiI to Cell 

Solving for temperature:

GAMGPBiCGStab:  Solving for T, Initial residual = 0.0003652637, Final residual = 3.308439e-11, No Iterations 8
T: min = 961.4944, mean = 1141.745, max = 1152.534
ExecutionTime = 1935.95 s



Time = 1.495

Region: air Courant Number mean: 1.983784 max: 2
Region: fuel Courant Number mean: 0.001993243 max: 0.118

Map from cell 

Map air from Cell

Map fuel from Cell

Map electrolyte from Cell

Map interconnect from Cell

Map phiEA from Cell 

Map phiEC from Cell 

Map phiI from Cell 

Nernst air: min = -0.7159869, mean = -0.7058091, max = -0.5806993
Total current (A) at ccl: 0.639972

Correct diffusivity for specie: O2

Nernst fuel: min = -1.79732, mean = -1.660875, max = -1.621165
Total current (A) at acl: 0.6400992

Correct diffusivity for specie: H2

ibar: 7999.65	voltage: 0.807748

Solve for single phase flow:

Reading hRef
Calculating field g.h

Creating field dpdt

PIMPLE: iteration 1
DILUPBiCGStab:  Solving for O2, Initial residual = 0.0005331291, Final residual = 8.0927e-10, No Iterations 19
Y: O2:0.1694699 -> 0.2301487
Constructing momentum equations
DICPCG:  Solving for p_rgh, Initial residual = 5.447982e-06, Final residual = 4.560904e-09, No Iterations 211
DICPCG:  Solving for p_rgh, Initial residual = 2.357057e-06, Final residual = 2.069275e-09, No Iterations 206
DICPCG:  Solving for p_rgh, Initial residual = 1.298113e-06, Final residual = 9.981309e-11, No Iterations 216

Solve for single phase flow:

Reading hRef
Calculating field g.h

Creating field dpdt

PIMPLE: iteration 1
DILUPBiCGStab:  Solving for H2, Initial residual = 4.536769e-06, Final residual = 8.379409e-12, No Iterations 137
Y: H2:0.09704643 -> 0.8312317
Constructing momentum equations
DICPCG:  Solving for p_rgh, Initial residual = 9.986747e-07, Final residual = 6.945568e-10, No Iterations 197
DICPCG:  Solving for p_rgh, Initial residual = 3.745659e-07, Final residual = 3.448747e-10, No Iterations 192
DICPCG:  Solving for p_rgh, Initial residual = 2.352125e-07, Final residual = 6.720282e-11, No Iterations 198

Solve for region phiEA:

GAMGPCG:  Solving for phi, Initial residual = 1.370335e-07, Final residual = 4.405461e-11, No Iterations 4

Solve for region phiEC:

GAMGPCG:  Solving for phi, Initial residual = 0.0008419944, Final residual = 4.761595e-11, No Iterations 5

Solve for region phiI:

GAMG:  Solving for phi, Initial residual = 9.540797e-05, Final residual = 1.323228e-14, No Iterations 1

Map to cell 

Map air to Cell

Map fuel to Cell

Map electrolyte to Cell

Map interconnect to Cell

Map phiEA to Cell 

Map phiEC to Cell 

Map phiI to Cell 

Solving for temperature:

GAMGPBiCGStab:  Solving for T, Initial residual = 0.0003647781, Final residual = 2.772986e-11, No Iterations 8
T: min = 961.4971, mean = 1141.754, max = 1152.542
ExecutionTime = 1937.13 s



Time = 1.496

Region: air Courant Number mean: 1.983784 max: 2
Region: fuel Courant Number mean: 0.001993243 max: 0.118

Map from cell 

Map air from Cell

Map fuel from Cell

Map electrolyte from Cell

Map interconnect from Cell

Map phiEA from Cell 

Map phiEC from Cell 

Map phiI from Cell 

Nernst air: min = -0.7159918, mean = -0.7058149, max = -0.5807234
Total current (A) at ccl: 0.6399675

Correct diffusivity for specie: O2

Nernst fuel: min = -1.797325, mean = -1.660879, max = -1.621168
Total current (A) at acl: 0.6400991

Correct diffusivity for specie: H2

ibar: 7999.593	voltage: 0.8077445

Solve for single phase flow:

Reading hRef
Calculating field g.h

Creating field dpdt

PIMPLE: iteration 1
DILUPBiCGStab:  Solving for O2, Initial residual = 0.0007064292, Final residual = 8.467419e-10, No Iterations 19
Y: O2:0.1694749 -> 0.2298252
Constructing momentum equations
DICPCG:  Solving for p_rgh, Initial residual = 4.957912e-06, Final residual = 4.347427e-09, No Iterations 210
DICPCG:  Solving for p_rgh, Initial residual = 2.141098e-06, Final residual = 1.978491e-09, No Iterations 207
DICPCG:  Solving for p_rgh, Initial residual = 1.176804e-06, Final residual = 8.408685e-11, No Iterations 216

Solve for single phase flow:

Reading hRef
Calculating field g.h

Creating field dpdt

PIMPLE: iteration 1
DILUPBiCGStab:  Solving for H2, Initial residual = 4.535658e-06, Final residual = 2.217001e-12, No Iterations 135
Y: H2:0.09704593 -> 0.831233
Constructing momentum equations
DICPCG:  Solving for p_rgh, Initial residual = 9.739672e-07, Final residual = 8.217972e-10, No Iterations 197
DICPCG:  Solving for p_rgh, Initial residual = 3.840364e-07, Final residual = 3.479395e-10, No Iterations 191
DICPCG:  Solving for p_rgh, Initial residual = 2.409897e-07, Final residual = 9.550794e-11, No Iterations 197

Solve for region phiEA:

GAMGPCG:  Solving for phi, Initial residual = 1.358402e-07, Final residual = 4.355673e-11, No Iterations 4

Solve for region phiEC:

GAMGPCG:  Solving for phi, Initial residual = 0.0009772727, Final residual = 4.915606e-11, No Iterations 5

Solve for region phiI:

GAMG:  Solving for phi, Initial residual = 9.830778e-05, Final residual = 1.309716e-14, No Iterations 1

Map to cell 

Map air to Cell

Map fuel to Cell

Map electrolyte to Cell

Map interconnect to Cell

Map phiEA to Cell 

Map phiEC to Cell 

Map phiI to Cell 

Solving for temperature:

GAMGPBiCGStab:  Solving for T, Initial residual = 0.0003630741, Final residual = 2.376272e-11, No Iterations 8
T: min = 961.5009, mean = 1141.762, max = 1152.55
ExecutionTime = 1938.31 s



Time = 1.497

Region: air Courant Number mean: 1.983784 max: 2
Region: fuel Courant Number mean: 0.001993243 max: 0.118

Map from cell 

Map air from Cell

Map fuel from Cell

Map electrolyte from Cell

Map interconnect from Cell

Map phiEA from Cell 

Map phiEC from Cell 

Map phiI from Cell 

Nernst air: min = -0.7159979, mean = -0.7058206, max = -0.5807036
Total current (A) at ccl: 0.6399722

Correct diffusivity for specie: O2

Nernst fuel: min = -1.79733, mean = -1.660882, max = -1.62117
Total current (A) at acl: 0.6400986

Correct diffusivity for specie: H2

ibar: 7999.652	voltage: 0.8077404

Solve for single phase flow:

Reading hRef
Calculating field g.h

Creating field dpdt

PIMPLE: iteration 1
DILUPBiCGStab:  Solving for O2, Initial residual = 0.0005330852, Final residual = 8.394126e-10, No Iterations 19
Y: O2:0.1694716 -> 0.2301487
Constructing momentum equations
DICPCG:  Solving for p_rgh, Initial residual = 5.444469e-06, Final residual = 4.549069e-09, No Iterations 211
DICPCG:  Solving for p_rgh, Initial residual = 2.355696e-06, Final residual = 2.066749e-09, No Iterations 206
DICPCG:  Solving for p_rgh, Initial residual = 1.297345e-06, Final residual = 9.976292e-11, No Iterations 216

Solve for single phase flow:

Reading hRef
Calculating field g.h

Creating field dpdt

PIMPLE: iteration 1
DILUPBiCGStab:  Solving for H2, Initial residual = 4.518324e-06, Final residual = 6.389356e-12, No Iterations 135
Y: H2:0.09704544 -> 0.8312343
Constructing momentum equations
DICPCG:  Solving for p_rgh, Initial residual = 9.936581e-07, Final residual = 6.910471e-10, No Iterations 197
DICPCG:  Solving for p_rgh, Initial residual = 3.726983e-07, Final residual = 3.425457e-10, No Iterations 192
DICPCG:  Solving for p_rgh, Initial residual = 2.340787e-07, Final residual = 6.680648e-11, No Iterations 198

Solve for region phiEA:

GAMGPCG:  Solving for phi, Initial residual = 1.36557e-07, Final residual = 4.388294e-11, No Iterations 4

Solve for region phiEC:

GAMGPCG:  Solving for phi, Initial residual = 0.0008363772, Final residual = 4.736678e-11, No Iterations 5

Solve for region phiI:

GAMG:  Solving for phi, Initial residual = 9.487335e-05, Final residual = 1.328221e-14, No Iterations 1

Map to cell 

Map air to Cell

Map fuel to Cell

Map electrolyte to Cell

Map interconnect to Cell

Map phiEA to Cell 

Map phiEC to Cell 

Map phiI to Cell 

Solving for temperature:

GAMGPBiCGStab:  Solving for T, Initial residual = 0.0003625937, Final residual = 2.773276e-11, No Iterations 8
T: min = 961.5036, mean = 1141.77, max = 1152.558
ExecutionTime = 1939.5 s



Time = 1.498

Region: air Courant Number mean: 1.983784 max: 2
Region: fuel Courant Number mean: 0.001993243 max: 0.118

Map from cell 

Map air from Cell

Map fuel from Cell

Map electrolyte from Cell

Map interconnect from Cell

Map phiEA from Cell 

Map phiEC from Cell 

Map phiI from Cell 

Nernst air: min = -0.7160027, mean = -0.7058264, max = -0.5807277
Total current (A) at ccl: 0.6399677

Correct diffusivity for specie: O2

Nernst fuel: min = -1.797335, mean = -1.660886, max = -1.621173
Total current (A) at acl: 0.6400985

Correct diffusivity for specie: H2

ibar: 7999.596	voltage: 0.807737

Solve for single phase flow:

Reading hRef
Calculating field g.h

Creating field dpdt

PIMPLE: iteration 1
DILUPBiCGStab:  Solving for O2, Initial residual = 0.0007063918, Final residual = 8.46895e-10, No Iterations 19
Y: O2:0.1694765 -> 0.2298252
Constructing momentum equations
DICPCG:  Solving for p_rgh, Initial residual = 4.957187e-06, Final residual = 4.360833e-09, No Iterations 210
DICPCG:  Solving for p_rgh, Initial residual = 2.141078e-06, Final residual = 1.976761e-09, No Iterations 207
DICPCG:  Solving for p_rgh, Initial residual = 1.176707e-06, Final residual = 8.404402e-11, No Iterations 216

Solve for single phase flow:

Reading hRef
Calculating field g.h

Creating field dpdt

PIMPLE: iteration 1
DILUPBiCGStab:  Solving for H2, Initial residual = 4.51754e-06, Final residual = 6.322334e-12, No Iterations 135
Y: H2:0.09704495 -> 0.8312356
Constructing momentum equations
DICPCG:  Solving for p_rgh, Initial residual = 9.689896e-07, Final residual = 8.181211e-10, No Iterations 197
DICPCG:  Solving for p_rgh, Initial residual = 3.82207e-07, Final residual = 3.447256e-10, No Iterations 191
DICPCG:  Solving for p_rgh, Initial residual = 2.398258e-07, Final residual = 9.503532e-11, No Iterations 197

Solve for region phiEA:

GAMGPCG:  Solving for phi, Initial residual = 1.353593e-07, Final residual = 4.338441e-11, No Iterations 4

Solve for region phiEC:

GAMGPCG:  Solving for phi, Initial residual = 0.0009716846, Final residual = 4.891236e-11, No Iterations 5

Solve for region phiI:

GAMG:  Solving for phi, Initial residual = 9.776451e-05, Final residual = 1.297088e-14, No Iterations 1

Map to cell 

Map air to Cell

Map fuel to Cell

Map electrolyte to Cell

Map interconnect to Cell

Map phiEA to Cell 

Map phiEC to Cell 

Map phiI to Cell 

Solving for temperature:

GAMGPBiCGStab:  Solving for T, Initial residual = 0.0003608986, Final residual = 8.451988e-11, No Iterations 8
T: min = 961.5073, mean = 1141.779, max = 1152.566
ExecutionTime = 1940.75 s



Time = 1.499

Region: air Courant Number mean: 1.983784 max: 2
Region: fuel Courant Number mean: 0.001993243 max: 0.118

Map from cell 

Map air from Cell

Map fuel from Cell

Map electrolyte from Cell

Map interconnect from Cell

Map phiEA from Cell 

Map phiEC from Cell 

Map phiI from Cell 

Nernst air: min = -0.7160087, mean = -0.705832, max = -0.5807079
Total current (A) at ccl: 0.6399724

Correct diffusivity for specie: O2

Nernst fuel: min = -1.797339, mean = -1.66089, max = -1.621175
Total current (A) at acl: 0.6400981

Correct diffusivity for specie: H2

ibar: 7999.654	voltage: 0.8077329

Solve for single phase flow:

Reading hRef
Calculating field g.h

Creating field dpdt

PIMPLE: iteration 1
DILUPBiCGStab:  Solving for O2, Initial residual = 0.0005330415, Final residual = 8.707385e-10, No Iterations 19
Y: O2:0.1694732 -> 0.2301487
Constructing momentum equations
DICPCG:  Solving for p_rgh, Initial residual = 5.441009e-06, Final residual = 4.537159e-09, No Iterations 211
DICPCG:  Solving for p_rgh, Initial residual = 2.354357e-06, Final residual = 2.064482e-09, No Iterations 206
DICPCG:  Solving for p_rgh, Initial residual = 1.296629e-06, Final residual = 9.97113e-11, No Iterations 216

Solve for single phase flow:

Reading hRef
Calculating field g.h

Creating field dpdt

PIMPLE: iteration 1
DILUPBiCGStab:  Solving for H2, Initial residual = 4.500202e-06, Final residual = 5.110807e-12, No Iterations 136
Y: H2:0.09704446 -> 0.8312369
Constructing momentum equations
DICPCG:  Solving for p_rgh, Initial residual = 9.886398e-07, Final residual = 6.873149e-10, No Iterations 197
DICPCG:  Solving for p_rgh, Initial residual = 3.708357e-07, Final residual = 3.411529e-10, No Iterations 192
DICPCG:  Solving for p_rgh, Initial residual = 2.328932e-07, Final residual = 6.635388e-11, No Iterations 198

Solve for region phiEA:

GAMGPCG:  Solving for phi, Initial residual = 1.360823e-07, Final residual = 4.371188e-11, No Iterations 4

Solve for region phiEC:

GAMGPCG:  Solving for phi, Initial residual = 0.0008307961, Final residual = 4.711934e-11, No Iterations 5

Solve for region phiI:

GAMG:  Solving for phi, Initial residual = 9.434284e-05, Final residual = 1.309264e-14, No Iterations 1

Map to cell 

Map air to Cell

Map fuel to Cell

Map electrolyte to Cell

Map interconnect to Cell

Map phiEA to Cell 

Map phiEC to Cell 

Map phiI to Cell 

Solving for temperature:

GAMGPBiCGStab:  Solving for T, Initial residual = 0.0003604232, Final residual = 2.773547e-11, No Iterations 8
T: min = 961.51, mean = 1141.787, max = 1152.574
ExecutionTime = 1941.97 s



Time = 1.5

Region: air Courant Number mean: 1.983784 max: 2
Region: fuel Courant Number mean: 0.001993243 max: 0.118

Map from cell 

Map air from Cell

Map fuel from Cell

Map electrolyte from Cell

Map interconnect from Cell

Map phiEA from Cell 

Map phiEC from Cell 

Map phiI from Cell 

Nernst air: min = -0.7160136, mean = -0.7058378, max = -0.5807319
Total current (A) at ccl: 0.6399678

Correct diffusivity for specie: O2

Nernst fuel: min = -1.797344, mean = -1.660893, max = -1.621178
Total current (A) at acl: 0.640098

Correct diffusivity for specie: H2

ibar: 7999.598	voltage: 0.8077295

Solve for single phase flow:

Reading hRef
Calculating field g.h

Creating field dpdt

PIMPLE: iteration 1
DILUPBiCGStab:  Solving for O2, Initial residual = 0.0007063545, Final residual = 8.470375e-10, No Iterations 19
Y: O2:0.1694782 -> 0.2298252
Constructing momentum equations
DICPCG:  Solving for p_rgh, Initial residual = 4.956401e-06, Final residual = 4.37381e-09, No Iterations 210
DICPCG:  Solving for p_rgh, Initial residual = 2.141026e-06, Final residual = 1.974702e-09, No Iterations 207
DICPCG:  Solving for p_rgh, Initial residual = 1.176557e-06, Final residual = 8.397265e-11, No Iterations 216

Solve for single phase flow:

Reading hRef
Calculating field g.h

Creating field dpdt

PIMPLE: iteration 1
DILUPBiCGStab:  Solving for H2, Initial residual = 4.499168e-06, Final residual = 2.547216e-12, No Iterations 136
Y: H2:0.09704396 -> 0.8312382
Constructing momentum equations
DICPCG:  Solving for p_rgh, Initial residual = 9.639904e-07, Final residual = 8.137152e-10, No Iterations 197
DICPCG:  Solving for p_rgh, Initial residual = 3.803286e-07, Final residual = 3.40969e-10, No Iterations 191
DICPCG:  Solving for p_rgh, Initial residual = 2.386541e-07, Final residual = 9.450905e-11, No Iterations 197

Solve for region phiEA:

GAMGPCG:  Solving for phi, Initial residual = 1.348806e-07, Final residual = 4.321278e-11, No Iterations 4

Solve for region phiEC:

GAMGPCG:  Solving for phi, Initial residual = 0.0009661326, Final residual = 4.86705e-11, No Iterations 5

Solve for region phiI:

GAMG:  Solving for phi, Initial residual = 9.722507e-05, Final residual = 1.305647e-14, No Iterations 1

Map to cell 

Map air to Cell

Map fuel to Cell

Map electrolyte to Cell

Map interconnect to Cell

Map phiEA to Cell 

Map phiEC to Cell 

Map phiI to Cell 

Solving for temperature:

GAMGPBiCGStab:  Solving for T, Initial residual = 0.000358737, Final residual = 6.220422e-11, No Iterations 8
T: min = 961.5137, mean = 1141.795, max = 1152.582
ExecutionTime = 1943.91 s


End

